MODEL 1
REMARK VINA RESULT:      -8.2      0.000      0.000
REMARK SMILES Fc1ccc(-c2cncc(CNC[C@H]3CCc4ccccc4O3)c2)cc1
REMARK SMILES IDX 11 1 10 2 6 3 7 4 24 5 8 6 9 7 5 8 2 9 3 10 26 11 4 12 25 13
REMARK SMILES IDX 1 14 12 15 13 17 14 18 15 19 23 20 16 21 22 22 17 23 21 24
REMARK SMILES IDX 18 25 20 26 19 27
REMARK H PARENT 12 16
ROOT
ATOM      1  C   UNL     1      96.014 108.354 109.003  1.00  0.00     0.118 C 
ENDROOT
BRANCH   1   2
ATOM      2  C   UNL     1      96.969 107.615 108.105  1.00  0.00    -0.015 A 
ATOM      3  C   UNL     1      97.617 106.844 105.887  1.00  0.00     0.000 A 
ATOM      4  C   UNL     1      98.773 106.286 106.458  1.00  0.00     0.119 A 
ATOM      5  C   UNL     1      96.715 107.514 106.731  1.00  0.00     0.017 A 
ATOM      6  N   UNL     1      99.003 106.397 107.792  1.00  0.00    -0.264 NA
ATOM      7  C   UNL     1      98.140 107.043 108.619  1.00  0.00     0.116 A 
BRANCH   3   8
ATOM      8  C   UNL     1      97.355 106.731 104.430  1.00  0.00    -0.017 A 
ATOM      9  C   UNL     1      96.858 106.517 101.669  1.00  0.00     0.123 A 
ATOM     10  C   UNL     1      98.171 106.502 102.146  1.00  0.00     0.040 A 
ATOM     11  C   UNL     1      95.792 106.637 102.564  1.00  0.00     0.040 A 
ATOM     12  C   UNL     1      98.420 106.609 103.518  1.00  0.00     0.012 A 
ATOM     13  C   UNL     1      96.036 106.744 103.936  1.00  0.00     0.012 A 
ATOM     14  F   UNL     1      96.618 106.413 100.339  1.00  0.00    -0.207 F 
ENDBRANCH   3   8
ENDBRANCH   1   2
BRANCH   1  15
ATOM     15  N   UNL     1      96.702 108.819 110.216  1.00  0.00    -0.309 NA
ATOM     16  H   UNL     1      97.687 108.521 110.170  1.00  0.00     0.123 HD
BRANCH  15  17
ATOM     17  C   UNL     1      96.105 108.282 111.453  1.00  0.00     0.126 C 
BRANCH  17  18
ATOM     18  C   UNL     1      97.165 107.808 112.466  1.00  0.00     0.187 C 
ATOM     19  C   UNL     1      96.945 108.472 113.836  1.00  0.00     0.051 C 
ATOM     20  O   UNL     1      97.103 106.386 112.603  1.00  0.00    -0.489 OA
ATOM     21  C   UNL     1      97.975 107.951 114.848  1.00  0.00     0.043 C 
ATOM     22  C   UNL     1      97.621 105.718 113.718  1.00  0.00     0.122 A 
ATOM     23  C   UNL     1      98.037 106.445 114.851  1.00  0.00    -0.006 A 
ATOM     24  C   UNL     1      97.700 104.322 113.714  1.00  0.00     0.047 A 
ATOM     25  C   UNL     1      98.565 105.759 115.956  1.00  0.00     0.007 A 
ATOM     26  C   UNL     1      98.213 103.646 114.825  1.00  0.00     0.004 A 
ATOM     27  C   UNL     1      98.648 104.364 115.942  1.00  0.00     0.001 A 
ENDBRANCH  17  18
ENDBRANCH  15  17
ENDBRANCH   1  15
TORSDOF 5
ENDMDL
MODEL 2
REMARK VINA RESULT:      -8.2     13.468     15.503
REMARK SMILES Fc1ccc(-c2cncc(CNC[C@H]3CCc4ccccc4O3)c2)cc1
REMARK SMILES IDX 11 1 10 2 6 3 7 4 24 5 8 6 9 7 5 8 2 9 3 10 26 11 4 12 25 13
REMARK SMILES IDX 1 14 12 15 13 17 14 18 15 19 23 20 16 21 22 22 17 23 21 24
REMARK SMILES IDX 18 25 20 26 19 27
REMARK H PARENT 12 16
ROOT
ATOM      1  C   UNL     1     107.074  94.119 111.063  1.00  0.00     0.118 C 
ENDROOT
BRANCH   1   2
ATOM      2  C   UNL     1     106.033  95.110 111.508  1.00  0.00    -0.015 A 
ATOM      3  C   UNL     1     103.756  95.608 112.217  1.00  0.00     0.000 A 
ATOM      4  C   UNL     1     104.137  96.951 112.374  1.00  0.00     0.119 A 
ATOM      5  C   UNL     1     104.724  94.688 111.780  1.00  0.00     0.017 A 
ATOM      6  N   UNL     1     105.411  97.340 112.109  1.00  0.00    -0.264 NA
ATOM      7  C   UNL     1     106.357  96.461 111.686  1.00  0.00     0.116 A 
BRANCH   3   8
ATOM      8  C   UNL     1     102.367  95.170 112.507  1.00  0.00    -0.017 A 
ATOM      9  C   UNL     1      99.735  94.342 113.056  1.00  0.00     0.123 A 
ATOM     10  C   UNL     1     100.473  93.707 112.054  1.00  0.00     0.040 A 
ATOM     11  C   UNL     1     100.305  95.388 113.785  1.00  0.00     0.040 A 
ATOM     12  C   UNL     1     101.781  94.117 111.779  1.00  0.00     0.012 A 
ATOM     13  C   UNL     1     101.612  95.802 113.514  1.00  0.00     0.012 A 
ATOM     14  F   UNL     1      98.467  93.942 113.321  1.00  0.00    -0.207 F 
ENDBRANCH   3   8
ENDBRANCH   1   2
BRANCH   1  15
ATOM     15  N   UNL     1     107.092  92.953 111.960  1.00  0.00    -0.309 NA
ATOM     16  H   UNL     1     106.120  92.666 112.144  1.00  0.00     0.123 HD
BRANCH  15  17
ATOM     17  C   UNL     1     107.754  93.234 113.247  1.00  0.00     0.126 C 
BRANCH  17  18
ATOM     18  C   UNL     1     106.777  93.191 114.438  1.00  0.00     0.187 C 
ATOM     19  C   UNL     1     106.472  94.611 114.944  1.00  0.00     0.051 C 
ATOM     20  O   UNL     1     105.562  92.547 114.046  1.00  0.00    -0.489 OA
ATOM     21  C   UNL     1     105.458  94.557 116.095  1.00  0.00     0.043 C 
ATOM     22  C   UNL     1     104.363  92.723 114.743  1.00  0.00     0.122 A 
ATOM     23  C   UNL     1     104.259  93.716 115.739  1.00  0.00    -0.006 A 
ATOM     24  C   UNL     1     103.256  91.929 114.429  1.00  0.00     0.047 A 
ATOM     25  C   UNL     1     103.050  93.871 116.436  1.00  0.00     0.007 A 
ATOM     26  C   UNL     1     102.051  92.101 115.118  1.00  0.00     0.004 A 
ATOM     27  C   UNL     1     101.950  93.068 116.122  1.00  0.00     0.001 A 
ENDBRANCH  17  18
ENDBRANCH  15  17
ENDBRANCH   1  15
TORSDOF 5
ENDMDL
MODEL 3
REMARK VINA RESULT:      -8.1      3.605      9.771
REMARK SMILES Fc1ccc(-c2cncc(CNC[C@H]3CCc4ccccc4O3)c2)cc1
REMARK SMILES IDX 11 1 10 2 6 3 7 4 24 5 8 6 9 7 5 8 2 9 3 10 26 11 4 12 25 13
REMARK SMILES IDX 1 14 12 15 13 17 14 18 15 19 23 20 16 21 22 22 17 23 21 24
REMARK SMILES IDX 18 25 20 26 19 27
REMARK H PARENT 12 16
ROOT
ATOM      1  C   UNL     1      96.571 109.228 109.696  1.00  0.00     0.118 C 
ENDROOT
BRANCH   1   2
ATOM      2  C   UNL     1      96.481 109.076 111.191  1.00  0.00    -0.015 A 
ATOM      3  C   UNL     1      96.949 107.807 113.217  1.00  0.00     0.000 A 
ATOM      4  C   UNL     1      96.345 108.836 113.958  1.00  0.00     0.119 A 
ATOM      5  C   UNL     1      97.013 107.942 111.820  1.00  0.00     0.017 A 
ATOM      6  N   UNL     1      95.838 109.929 113.330  1.00  0.00    -0.264 NA
ATOM      7  C   UNL     1      95.893 110.072 111.981  1.00  0.00     0.116 A 
BRANCH   3   8
ATOM      8  C   UNL     1      97.509 106.608 113.892  1.00  0.00    -0.017 A 
ATOM      9  C   UNL     1      98.569 104.338 115.171  1.00  0.00     0.123 A 
ATOM     10  C   UNL     1      97.836 104.197 113.990  1.00  0.00     0.040 A 
ATOM     11  C   UNL     1      98.776 105.608 115.716  1.00  0.00     0.040 A 
ATOM     12  C   UNL     1      97.307 105.323 113.353  1.00  0.00     0.012 A 
ATOM     13  C   UNL     1      98.250 106.737 115.083  1.00  0.00     0.012 A 
ATOM     14  F   UNL     1      99.081 103.244 115.788  1.00  0.00    -0.207 F 
ENDBRANCH   3   8
ENDBRANCH   1   2
BRANCH   1  15
ATOM     15  N   UNL     1      96.938 107.950 109.070  1.00  0.00    -0.309 NA
ATOM     16  H   UNL     1      97.924 108.000 108.774  1.00  0.00     0.123 HD
BRANCH  15  17
ATOM     17  C   UNL     1      96.109 107.632 107.892  1.00  0.00     0.126 C 
BRANCH  17  18
ATOM     18  C   UNL     1      96.880 107.778 106.566  1.00  0.00     0.187 C 
ATOM     19  C   UNL     1      98.132 106.884 106.563  1.00  0.00     0.051 C 
ATOM     20  O   UNL     1      96.032 107.426 105.471  1.00  0.00    -0.489 OA
ATOM     21  C   UNL     1      98.861 107.000 105.218  1.00  0.00     0.043 C 
ATOM     22  C   UNL     1      96.539 107.057 104.220  1.00  0.00     0.122 A 
ATOM     23  C   UNL     1      97.918 106.813 104.057  1.00  0.00    -0.006 A 
ATOM     24  C   UNL     1      95.669 106.904 103.137  1.00  0.00     0.047 A 
ATOM     25  C   UNL     1      98.411 106.455 102.792  1.00  0.00     0.007 A 
ATOM     26  C   UNL     1      96.166 106.532 101.885  1.00  0.00     0.004 A 
ATOM     27  C   UNL     1      97.535 106.311 101.712  1.00  0.00     0.001 A 
ENDBRANCH  17  18
ENDBRANCH  15  17
ENDBRANCH   1  15
TORSDOF 5
ENDMDL
MODEL 4
REMARK VINA RESULT:      -7.9     13.434     16.047
REMARK SMILES Fc1ccc(-c2cncc(CNC[C@H]3CCc4ccccc4O3)c2)cc1
REMARK SMILES IDX 11 1 10 2 6 3 7 4 24 5 8 6 9 7 5 8 2 9 3 10 26 11 4 12 25 13
REMARK SMILES IDX 1 14 12 15 13 17 14 18 15 19 23 20 16 21 22 22 17 23 21 24
REMARK SMILES IDX 18 25 20 26 19 27
REMARK H PARENT 12 16
ROOT
ATOM      1  C   UNL     1     106.746  94.757 110.698  1.00  0.00     0.118 C 
ENDROOT
BRANCH   1   2
ATOM      2  C   UNL     1     106.616  94.038 112.013  1.00  0.00    -0.015 A 
ATOM      3  C   UNL     1     105.226  93.067 113.762  1.00  0.00     0.000 A 
ATOM      4  C   UNL     1     106.399  92.667 114.423  1.00  0.00     0.119 A 
ATOM      5  C   UNL     1     105.350  93.758 112.545  1.00  0.00     0.017 A 
ATOM      6  N   UNL     1     107.617  92.945 113.890  1.00  0.00    -0.264 NA
ATOM      7  C   UNL     1     107.752  93.611 112.714  1.00  0.00     0.116 A 
BRANCH   3   8
ATOM      8  C   UNL     1     103.888  92.767 114.333  1.00  0.00    -0.017 A 
ATOM      9  C   UNL     1     101.354  92.198 115.415  1.00  0.00     0.123 A 
ATOM     10  C   UNL     1     102.508  91.931 116.157  1.00  0.00     0.040 A 
ATOM     11  C   UNL     1     101.461  92.749 114.135  1.00  0.00     0.040 A 
ATOM     12  C   UNL     1     103.768  92.212 115.621  1.00  0.00     0.012 A 
ATOM     13  C   UNL     1     102.719  93.032 113.595  1.00  0.00     0.012 A 
ATOM     14  F   UNL     1     100.133  91.925 115.936  1.00  0.00    -0.207 F 
ENDBRANCH   3   8
ENDBRANCH   1   2
BRANCH   1  15
ATOM     15  N   UNL     1     105.962  96.001 110.712  1.00  0.00    -0.309 NA
ATOM     16  H   UNL     1     106.004  96.426 109.774  1.00  0.00     0.123 HD
BRANCH  15  17
ATOM     17  C   UNL     1     106.461  96.980 111.696  1.00  0.00     0.126 C 
BRANCH  17  18
ATOM     18  C   UNL     1     105.438  97.275 112.810  1.00  0.00     0.187 C 
ATOM     19  C   UNL     1     104.029  96.828 112.387  1.00  0.00     0.051 C 
ATOM     20  O   UNL     1     105.820  96.600 114.010  1.00  0.00    -0.489 OA
ATOM     21  C   UNL     1     103.030  97.080 113.525  1.00  0.00     0.043 C 
ATOM     22  C   UNL     1     104.911  96.328 115.038  1.00  0.00     0.122 A 
ATOM     23  C   UNL     1     103.530  96.525 114.835  1.00  0.00    -0.006 A 
ATOM     24  C   UNL     1     105.375  95.834 116.261  1.00  0.00     0.047 A 
ATOM     25  C   UNL     1     102.633  96.258 115.881  1.00  0.00     0.007 A 
ATOM     26  C   UNL     1     104.473  95.557 117.292  1.00  0.00     0.004 A 
ATOM     27  C   UNL     1     103.105  95.772 117.103  1.00  0.00     0.001 A 
ENDBRANCH  17  18
ENDBRANCH  15  17
ENDBRANCH   1  15
TORSDOF 5
ENDMDL
MODEL 5
REMARK VINA RESULT:      -7.8      1.123      2.187
REMARK SMILES Fc1ccc(-c2cncc(CNC[C@H]3CCc4ccccc4O3)c2)cc1
REMARK SMILES IDX 11 1 10 2 6 3 7 4 24 5 8 6 9 7 5 8 2 9 3 10 26 11 4 12 25 13
REMARK SMILES IDX 1 14 12 15 13 17 14 18 15 19 23 20 16 21 22 22 17 23 21 24
REMARK SMILES IDX 18 25 20 26 19 27
REMARK H PARENT 12 16
ROOT
ATOM      1  C   UNL     1      96.163 108.218 108.953  1.00  0.00     0.118 C 
ENDROOT
BRANCH   1   2
ATOM      2  C   UNL     1      97.121 107.536 108.014  1.00  0.00    -0.015 A 
ATOM      3  C   UNL     1      97.730 106.826 105.764  1.00  0.00     0.000 A 
ATOM      4  C   UNL     1      98.926 106.311 106.289  1.00  0.00     0.119 A 
ATOM      5  C   UNL     1      96.827 107.444 106.646  1.00  0.00     0.017 A 
ATOM      6  N   UNL     1      99.194 106.413 107.617  1.00  0.00    -0.264 NA
ATOM      7  C   UNL     1      98.331 107.007 108.480  1.00  0.00     0.116 A 
BRANCH   3   8
ATOM      8  C   UNL     1      97.426 106.724 104.314  1.00  0.00    -0.017 A 
ATOM      9  C   UNL     1      96.852 106.528 101.567  1.00  0.00     0.123 A 
ATOM     10  C   UNL     1      95.812 106.662 102.491  1.00  0.00     0.040 A 
ATOM     11  C   UNL     1      98.177 106.493 102.008  1.00  0.00     0.040 A 
ATOM     12  C   UNL     1      96.095 106.758 103.856  1.00  0.00     0.012 A 
ATOM     13  C   UNL     1      98.465 106.589 103.373  1.00  0.00     0.012 A 
ATOM     14  F   UNL     1      96.575 106.435 100.243  1.00  0.00    -0.207 F 
ENDBRANCH   3   8
ENDBRANCH   1   2
BRANCH   1  15
ATOM     15  N   UNL     1      96.879 108.747 110.123  1.00  0.00    -0.309 NA
ATOM     16  H   UNL     1      97.513 108.016 110.479  1.00  0.00     0.123 HD
BRANCH  15  17
ATOM     17  C   UNL     1      95.972 109.155 111.212  1.00  0.00     0.126 C 
BRANCH  17  18
ATOM     18  C   UNL     1      96.118 108.273 112.467  1.00  0.00     0.187 C 
ATOM     19  C   UNL     1      97.101 107.118 112.210  1.00  0.00     0.051 C 
ATOM     20  O   UNL     1      96.578 109.065 113.565  1.00  0.00    -0.489 OA
ATOM     21  C   UNL     1      97.276 106.280 113.484  1.00  0.00     0.043 C 
ATOM     22  C   UNL     1      97.195 108.501 114.687  1.00  0.00     0.122 A 
ATOM     23  C   UNL     1      97.577 107.144 114.681  1.00  0.00    -0.006 A 
ATOM     24  C   UNL     1      97.456 109.297 115.806  1.00  0.00     0.047 A 
ATOM     25  C   UNL     1      98.185 106.594 115.820  1.00  0.00     0.007 A 
ATOM     26  C   UNL     1      98.076 108.743 116.931  1.00  0.00     0.004 A 
ATOM     27  C   UNL     1      98.436 107.393 116.938  1.00  0.00     0.001 A 
ENDBRANCH  17  18
ENDBRANCH  15  17
ENDBRANCH   1  15
TORSDOF 5
ENDMDL
MODEL 6
REMARK VINA RESULT:      -7.7     12.525     15.248
REMARK SMILES Fc1ccc(-c2cncc(CNC[C@H]3CCc4ccccc4O3)c2)cc1
REMARK SMILES IDX 11 1 10 2 6 3 7 4 24 5 8 6 9 7 5 8 2 9 3 10 26 11 4 12 25 13
REMARK SMILES IDX 1 14 12 15 13 17 14 18 15 19 23 20 16 21 22 22 17 23 21 24
REMARK SMILES IDX 18 25 20 26 19 27
REMARK H PARENT 12 16
ROOT
ATOM      1  C   UNL     1     100.571  94.404 110.602  1.00  0.00     0.118 C 
ENDROOT
BRANCH   1   2
ATOM      2  C   UNL     1     101.255  93.651 111.711  1.00  0.00    -0.015 A 
ATOM      3  C   UNL     1     103.281  93.061 112.928  1.00  0.00     0.000 A 
ATOM      4  C   UNL     1     102.492  92.289 113.796  1.00  0.00     0.119 A 
ATOM      5  C   UNL     1     102.643  93.746 111.880  1.00  0.00     0.017 A 
ATOM      6  N   UNL     1     101.147  92.212 113.619  1.00  0.00    -0.264 NA
ATOM      7  C   UNL     1     100.518  92.869 112.610  1.00  0.00     0.116 A 
BRANCH   3   8
ATOM      8  C   UNL     1     104.752  93.154 113.114  1.00  0.00    -0.017 A 
ATOM      9  C   UNL     1     107.537  93.331 113.464  1.00  0.00     0.123 A 
ATOM     10  C   UNL     1     106.712  93.050 114.556  1.00  0.00     0.040 A 
ATOM     11  C   UNL     1     106.979  93.522 112.198  1.00  0.00     0.040 A 
ATOM     12  C   UNL     1     105.327  92.963 114.384  1.00  0.00     0.012 A 
ATOM     13  C   UNL     1     105.595  93.436 112.021  1.00  0.00     0.012 A 
ATOM     14  F   UNL     1     108.880  93.415 113.633  1.00  0.00    -0.207 F 
ENDBRANCH   3   8
ENDBRANCH   1   2
BRANCH   1  15
ATOM     15  N   UNL     1     100.791  95.850 110.750  1.00  0.00    -0.309 NA
ATOM     16  H   UNL     1     101.805  96.030 110.750  1.00  0.00     0.123 HD
BRANCH  15  17
ATOM     17  C   UNL     1     100.216  96.391 111.996  1.00  0.00     0.126 C 
BRANCH  17  18
ATOM     18  C   UNL     1     101.294  96.890 112.979  1.00  0.00     0.187 C 
ATOM     19  C   UNL     1     101.327  96.013 114.242  1.00  0.00     0.051 C 
ATOM     20  O   UNL     1     102.574  96.872 112.343  1.00  0.00    -0.489 OA
ATOM     21  C   UNL     1     102.439  96.489 115.187  1.00  0.00     0.043 C 
ATOM     22  C   UNL     1     103.769  96.858 113.070  1.00  0.00     0.122 A 
ATOM     23  C   UNL     1     103.752  96.648 114.464  1.00  0.00    -0.006 A 
ATOM     24  C   UNL     1     104.987  97.028 112.404  1.00  0.00     0.047 A 
ATOM     25  C   UNL     1     104.960  96.650 115.178  1.00  0.00     0.007 A 
ATOM     26  C   UNL     1     106.187  97.012 113.121  1.00  0.00     0.004 A 
ATOM     27  C   UNL     1     106.173  96.827 114.506  1.00  0.00     0.001 A 
ENDBRANCH  17  18
ENDBRANCH  15  17
ENDBRANCH   1  15
TORSDOF 5
ENDMDL
MODEL 7
REMARK VINA RESULT:      -7.6     13.157     15.463
REMARK SMILES Fc1ccc(-c2cncc(CNC[C@H]3CCc4ccccc4O3)c2)cc1
REMARK SMILES IDX 11 1 10 2 6 3 7 4 24 5 8 6 9 7 5 8 2 9 3 10 26 11 4 12 25 13
REMARK SMILES IDX 1 14 12 15 13 17 14 18 15 19 23 20 16 21 22 22 17 23 21 24
REMARK SMILES IDX 18 25 20 26 19 27
REMARK H PARENT 12 16
ROOT
ATOM      1  C   UNL     1     100.623  94.481 116.068  1.00  0.00     0.118 C 
ENDROOT
BRANCH   1   2
ATOM      2  C   UNL     1     101.269  93.834 114.873  1.00  0.00    -0.015 A 
ATOM      3  C   UNL     1     103.267  93.249 113.609  1.00  0.00     0.000 A 
ATOM      4  C   UNL     1     102.444  92.591 112.681  1.00  0.00     0.119 A 
ATOM      5  C   UNL     1     102.661  93.872 114.713  1.00  0.00     0.017 A 
ATOM      6  N   UNL     1     101.098  92.562 112.855  1.00  0.00    -0.264 NA
ATOM      7  C   UNL     1     100.498  93.159 113.917  1.00  0.00     0.116 A 
BRANCH   3   8
ATOM      8  C   UNL     1     104.742  93.286 113.430  1.00  0.00    -0.017 A 
ATOM      9  C   UNL     1     107.533  93.356 113.091  1.00  0.00     0.123 A 
ATOM     10  C   UNL     1     106.988  93.191 114.367  1.00  0.00     0.040 A 
ATOM     11  C   UNL     1     106.692  93.484 111.984  1.00  0.00     0.040 A 
ATOM     12  C   UNL     1     105.601  93.157 114.538  1.00  0.00     0.012 A 
ATOM     13  C   UNL     1     105.304  93.451 112.150  1.00  0.00     0.012 A 
ATOM     14  F   UNL     1     108.879  93.388 112.928  1.00  0.00    -0.207 F 
ENDBRANCH   3   8
ENDBRANCH   1   2
BRANCH   1  15
ATOM     15  N   UNL     1     100.555  95.939 115.889  1.00  0.00    -0.309 NA
ATOM     16  H   UNL     1     100.898  96.171 114.946  1.00  0.00     0.123 HD
BRANCH  15  17
ATOM     17  C   UNL     1     101.365  96.674 116.879  1.00  0.00     0.126 C 
BRANCH  17  18
ATOM     18  C   UNL     1     102.723  97.132 116.313  1.00  0.00     0.187 C 
ATOM     19  C   UNL     1     103.846  96.176 116.752  1.00  0.00     0.051 C 
ATOM     20  O   UNL     1     102.661  97.181 114.886  1.00  0.00    -0.489 OA
ATOM     21  C   UNL     1     105.183  96.614 116.138  1.00  0.00     0.043 C 
ATOM     22  C   UNL     1     103.808  97.146 114.085  1.00  0.00     0.122 A 
ATOM     23  C   UNL     1     105.063  96.847 114.654  1.00  0.00    -0.006 A 
ATOM     24  C   UNL     1     103.701  97.384 112.712  1.00  0.00     0.047 A 
ATOM     25  C   UNL     1     106.204  96.828 113.837  1.00  0.00     0.007 A 
ATOM     26  C   UNL     1     104.842  97.348 111.903  1.00  0.00     0.004 A 
ATOM     27  C   UNL     1     106.091  97.073 112.466  1.00  0.00     0.001 A 
ENDBRANCH  17  18
ENDBRANCH  15  17
ENDBRANCH   1  15
TORSDOF 5
ENDMDL
MODEL 8
REMARK VINA RESULT:      -7.5     12.839     15.302
REMARK SMILES Fc1ccc(-c2cncc(CNC[C@H]3CCc4ccccc4O3)c2)cc1
REMARK SMILES IDX 11 1 10 2 6 3 7 4 24 5 8 6 9 7 5 8 2 9 3 10 26 11 4 12 25 13
REMARK SMILES IDX 1 14 12 15 13 17 14 18 15 19 23 20 16 21 22 22 17 23 21 24
REMARK SMILES IDX 18 25 20 26 19 27
REMARK H PARENT 12 16
ROOT
ATOM      1  C   UNL     1     100.840  94.754 111.859  1.00  0.00     0.118 C 
ENDROOT
BRANCH   1   2
ATOM      2  C   UNL     1     102.130  95.496 112.079  1.00  0.00    -0.015 A 
ATOM      3  C   UNL     1     104.533  95.482 112.478  1.00  0.00     0.000 A 
ATOM      4  C   UNL     1     104.512  96.886 112.439  1.00  0.00     0.119 A 
ATOM      5  C   UNL     1     103.323  94.792 112.293  1.00  0.00     0.017 A 
ATOM      6  N   UNL     1     103.346  97.550 112.226  1.00  0.00    -0.264 NA
ATOM      7  C   UNL     1     102.170  96.896 112.046  1.00  0.00     0.116 A 
BRANCH   3   8
ATOM      8  C   UNL     1     105.802  94.744 112.707  1.00  0.00    -0.017 A 
ATOM      9  C   UNL     1     108.205  93.348 113.141  1.00  0.00     0.123 A 
ATOM     10  C   UNL     1     107.762  93.589 111.838  1.00  0.00     0.040 A 
ATOM     11  C   UNL     1     107.454  93.801 114.228  1.00  0.00     0.040 A 
ATOM     12  C   UNL     1     106.568  94.283 111.620  1.00  0.00     0.012 A 
ATOM     13  C   UNL     1     106.260  94.495 114.015  1.00  0.00     0.012 A 
ATOM     14  F   UNL     1     109.364  92.675 113.350  1.00  0.00    -0.207 F 
ENDBRANCH   3   8
ENDBRANCH   1   2
BRANCH   1  15
ATOM     15  N   UNL     1     100.631  93.758 112.920  1.00  0.00    -0.309 NA
ATOM     16  H   UNL     1      99.991  93.032 112.568  1.00  0.00     0.123 HD
BRANCH  15  17
ATOM     17  C   UNL     1     100.053  94.341 114.146  1.00  0.00     0.126 C 
BRANCH  17  18
ATOM     18  C   UNL     1     101.026  94.297 115.340  1.00  0.00     0.187 C 
ATOM     19  C   UNL     1     101.889  93.025 115.292  1.00  0.00     0.051 C 
ATOM     20  O   UNL     1     101.868  95.453 115.321  1.00  0.00    -0.489 OA
ATOM     21  C   UNL     1     102.888  93.020 116.457  1.00  0.00     0.043 C 
ATOM     22  C   UNL     1     103.093  95.496 115.995  1.00  0.00     0.122 A 
ATOM     23  C   UNL     1     103.643  94.322 116.546  1.00  0.00    -0.006 A 
ATOM     24  C   UNL     1     103.784  96.708 116.098  1.00  0.00     0.047 A 
ATOM     25  C   UNL     1     104.868  94.387 117.229  1.00  0.00     0.007 A 
ATOM     26  C   UNL     1     105.011  96.760 116.766  1.00  0.00     0.004 A 
ATOM     27  C   UNL     1     105.550  95.602 117.333  1.00  0.00     0.001 A 
ENDBRANCH  17  18
ENDBRANCH  15  17
ENDBRANCH   1  15
TORSDOF 5
ENDMDL
MODEL 9
REMARK VINA RESULT:      -7.5     12.641     15.557
REMARK SMILES Fc1ccc(-c2cncc(CNC[C@H]3CCc4ccccc4O3)c2)cc1
REMARK SMILES IDX 11 1 10 2 6 3 7 4 24 5 8 6 9 7 5 8 2 9 3 10 26 11 4 12 25 13
REMARK SMILES IDX 1 14 12 15 13 17 14 18 15 19 23 20 16 21 22 22 17 23 21 24
REMARK SMILES IDX 18 25 20 26 19 27
REMARK H PARENT 12 16
ROOT
ATOM      1  C   UNL     1     103.772  93.467 117.429  1.00  0.00     0.118 C 
ENDROOT
BRANCH   1   2
ATOM      2  C   UNL     1     103.507  94.609 116.486  1.00  0.00    -0.015 A 
ATOM      3  C   UNL     1     102.616  95.445 114.379  1.00  0.00     0.000 A 
ATOM      4  C   UNL     1     102.985  96.740 114.777  1.00  0.00     0.119 A 
ATOM      5  C   UNL     1     102.884  94.378 115.252  1.00  0.00     0.017 A 
ATOM      6  N   UNL     1     103.586  96.945 115.979  1.00  0.00    -0.264 NA
ATOM      7  C   UNL     1     103.850  95.922 116.833  1.00  0.00     0.116 A 
BRANCH   3   8
ATOM      8  C   UNL     1     101.957  95.210 113.068  1.00  0.00    -0.017 A 
ATOM      9  C   UNL     1     100.709  94.764 110.587  1.00  0.00     0.123 A 
ATOM     10  C   UNL     1     101.477  93.756 111.174  1.00  0.00     0.040 A 
ATOM     11  C   UNL     1     100.559  95.993 111.234  1.00  0.00     0.040 A 
ATOM     12  C   UNL     1     102.099  93.975 112.407  1.00  0.00     0.012 A 
ATOM     13  C   UNL     1     101.179  96.218 112.466  1.00  0.00     0.012 A 
ATOM     14  F   UNL     1     100.107  94.549 109.392  1.00  0.00    -0.207 F 
ENDBRANCH   3   8
ENDBRANCH   1   2
BRANCH   1  15
ATOM     15  N   UNL     1     104.387  92.340 116.713  1.00  0.00    -0.309 NA
ATOM     16  H   UNL     1     104.201  91.475 117.241  1.00  0.00     0.123 HD
BRANCH  15  17
ATOM     17  C   UNL     1     105.845  92.491 116.554  1.00  0.00     0.126 C 
BRANCH  17  18
ATOM     18  C   UNL     1     106.252  92.828 115.107  1.00  0.00     0.187 C 
ATOM     19  C   UNL     1     105.279  92.186 114.104  1.00  0.00     0.051 C 
ATOM     20  O   UNL     1     106.267  94.246 114.925  1.00  0.00    -0.489 OA
ATOM     21  C   UNL     1     105.666  92.572 112.670  1.00  0.00     0.043 C 
ATOM     22  C   UNL     1     106.182  94.839 113.661  1.00  0.00     0.122 A 
ATOM     23  C   UNL     1     105.864  94.060 112.530  1.00  0.00    -0.006 A 
ATOM     24  C   UNL     1     106.387  96.216 113.526  1.00  0.00     0.047 A 
ATOM     25  C   UNL     1     105.795  94.670 111.268  1.00  0.00     0.007 A 
ATOM     26  C   UNL     1     106.300  96.818 112.267  1.00  0.00     0.004 A 
ATOM     27  C   UNL     1     106.008  96.046 111.140  1.00  0.00     0.001 A 
ENDBRANCH  17  18
ENDBRANCH  15  17
ENDBRANCH   1  15
TORSDOF 5
ENDMDL
MODEL 10
REMARK VINA RESULT:      -7.5      3.623      9.592
REMARK SMILES Fc1ccc(-c2cncc(CNC[C@H]3CCc4ccccc4O3)c2)cc1
REMARK SMILES IDX 11 1 10 2 6 3 7 4 24 5 8 6 9 7 5 8 2 9 3 10 26 11 4 12 25 13
REMARK SMILES IDX 1 14 12 15 13 17 14 18 15 19 23 20 16 21 22 22 17 23 21 24
REMARK SMILES IDX 18 25 20 26 19 27
REMARK H PARENT 12 16
ROOT
ATOM      1  C   UNL     1      97.494 108.997 110.868  1.00  0.00     0.118 C 
ENDROOT
BRANCH   1   2
ATOM      2  C   UNL     1      97.098 108.515 112.238  1.00  0.00    -0.015 A 
ATOM      3  C   UNL     1      97.171 106.816 113.982  1.00  0.00     0.000 A 
ATOM      4  C   UNL     1      96.394 107.664 114.790  1.00  0.00     0.119 A 
ATOM      5  C   UNL     1      97.521 107.260 112.696  1.00  0.00     0.017 A 
ATOM      6  N   UNL     1      95.997 108.878 114.329  1.00  0.00    -0.264 NA
ATOM      7  C   UNL     1      96.329 109.319 113.088  1.00  0.00     0.116 A 
BRANCH   3   8
ATOM      8  C   UNL     1      97.613 105.487 114.476  1.00  0.00    -0.017 A 
ATOM      9  C   UNL     1      98.451 102.969 115.409  1.00  0.00     0.123 A 
ATOM     10  C   UNL     1      98.804 104.127 116.108  1.00  0.00     0.040 A 
ATOM     11  C   UNL     1      97.681 103.063 114.248  1.00  0.00     0.040 A 
ATOM     12  C   UNL     1      98.389 105.379 115.645  1.00  0.00     0.012 A 
ATOM     13  C   UNL     1      97.264 104.313 113.781  1.00  0.00     0.012 A 
ATOM     14  F   UNL     1      98.854 101.756 115.860  1.00  0.00    -0.207 F 
ENDBRANCH   3   8
ENDBRANCH   1   2
BRANCH   1  15
ATOM     15  N   UNL     1      97.050 108.044 109.840  1.00  0.00    -0.309 NA
ATOM     16  H   UNL     1      97.882 107.627 109.398  1.00  0.00     0.123 HD
BRANCH  15  17
ATOM     17  C   UNL     1      96.227 108.677 108.792  1.00  0.00     0.126 C 
BRANCH  17  18
ATOM     18  C   UNL     1      96.176 107.846 107.495  1.00  0.00     0.187 C 
ATOM     19  C   UNL     1      95.455 108.621 106.379  1.00  0.00     0.051 C 
ATOM     20  O   UNL     1      97.503 107.519 107.077  1.00  0.00    -0.489 OA
ATOM     21  C   UNL     1      95.457 107.803 105.081  1.00  0.00     0.043 C 
ATOM     22  C   UNL     1      97.804 107.154 105.760  1.00  0.00     0.122 A 
ATOM     23  C   UNL     1      96.838 107.300 104.743  1.00  0.00    -0.006 A 
ATOM     24  C   UNL     1      99.077 106.667 105.450  1.00  0.00     0.047 A 
ATOM     25  C   UNL     1      97.154 106.918 103.430  1.00  0.00     0.007 A 
ATOM     26  C   UNL     1      99.388 106.303 104.136  1.00  0.00     0.004 A 
ATOM     27  C   UNL     1      98.426 106.425 103.129  1.00  0.00     0.001 A 
ENDBRANCH  17  18
ENDBRANCH  15  17
ENDBRANCH   1  15
TORSDOF 5
ENDMDL
MODEL 11
REMARK VINA RESULT:      -7.4     12.759     16.183
REMARK SMILES Fc1ccc(-c2cncc(CNC[C@H]3CCc4ccccc4O3)c2)cc1
REMARK SMILES IDX 11 1 10 2 6 3 7 4 24 5 8 6 9 7 5 8 2 9 3 10 26 11 4 12 25 13
REMARK SMILES IDX 1 14 12 15 13 17 14 18 15 19 23 20 16 21 22 22 17 23 21 24
REMARK SMILES IDX 18 25 20 26 19 27
REMARK H PARENT 12 16
ROOT
ATOM      1  C   UNL     1     107.479  93.715 114.937  1.00  0.00     0.118 C 
ENDROOT
BRANCH   1   2
ATOM      2  C   UNL     1     106.235  93.747 115.783  1.00  0.00    -0.015 A 
ATOM      3  C   UNL     1     104.130  94.802 116.406  1.00  0.00     0.000 A 
ATOM      4  C   UNL     1     103.921  93.761 117.325  1.00  0.00     0.119 A 
ATOM      5  C   UNL     1     105.302  94.782 115.632  1.00  0.00     0.017 A 
ATOM      6  N   UNL     1     104.836  92.765 117.455  1.00  0.00    -0.264 NA
ATOM      7  C   UNL     1     105.973  92.733 116.713  1.00  0.00     0.116 A 
BRANCH   3   8
ATOM      8  C   UNL     1     103.136  95.895 116.253  1.00  0.00    -0.017 A 
ATOM      9  C   UNL     1     101.253  97.966 115.964  1.00  0.00     0.123 A 
ATOM     10  C   UNL     1     102.616  98.265 116.040  1.00  0.00     0.040 A 
ATOM     11  C   UNL     1     100.827  96.637 116.031  1.00  0.00     0.040 A 
ATOM     12  C   UNL     1     103.553  97.238 116.184  1.00  0.00     0.012 A 
ATOM     13  C   UNL     1     101.760  95.607 116.175  1.00  0.00     0.012 A 
ATOM     14  F   UNL     1     100.346  98.963 115.824  1.00  0.00    -0.207 F 
ENDBRANCH   3   8
ENDBRANCH   1   2
BRANCH   1  15
ATOM     15  N   UNL     1     107.333  92.741 113.844  1.00  0.00    -0.309 NA
ATOM     16  H   UNL     1     108.132  92.091 113.876  1.00  0.00     0.123 HD
BRANCH  15  17
ATOM     17  C   UNL     1     107.295  93.377 112.514  1.00  0.00     0.126 C 
BRANCH  17  18
ATOM     18  C   UNL     1     105.859  93.692 112.049  1.00  0.00     0.187 C 
ATOM     19  C   UNL     1     104.838  92.832 112.813  1.00  0.00     0.051 C 
ATOM     20  O   UNL     1     105.577  95.078 112.257  1.00  0.00    -0.489 OA
ATOM     21  C   UNL     1     103.412  93.194 112.377  1.00  0.00     0.043 C 
ATOM     22  C   UNL     1     104.270  95.571 112.334  1.00  0.00     0.122 A 
ATOM     23  C   UNL     1     103.178  94.683 112.420  1.00  0.00    -0.006 A 
ATOM     24  C   UNL     1     104.051  96.952 112.352  1.00  0.00     0.047 A 
ATOM     25  C   UNL     1     101.874  95.196 112.485  1.00  0.00     0.007 A 
ATOM     26  C   UNL     1     102.748  97.454 112.433  1.00  0.00     0.004 A 
ATOM     27  C   UNL     1     101.662  96.577 112.496  1.00  0.00     0.001 A 
ENDBRANCH  17  18
ENDBRANCH  15  17
ENDBRANCH   1  15
TORSDOF 5
ENDMDL
MODEL 12
REMARK VINA RESULT:      -7.4     12.696     15.190
REMARK SMILES Fc1ccc(-c2cncc(CNC[C@H]3CCc4ccccc4O3)c2)cc1
REMARK SMILES IDX 11 1 10 2 6 3 7 4 24 5 8 6 9 7 5 8 2 9 3 10 26 11 4 12 25 13
REMARK SMILES IDX 1 14 12 15 13 17 14 18 15 19 23 20 16 21 22 22 17 23 21 24
REMARK SMILES IDX 18 25 20 26 19 27
REMARK H PARENT 12 16
ROOT
ATOM      1  C   UNL     1     103.342  97.980 116.584  1.00  0.00     0.118 C 
ENDROOT
BRANCH   1   2
ATOM      2  C   UNL     1     104.360  96.892 116.373  1.00  0.00    -0.015 A 
ATOM      3  C   UNL     1     105.745  95.556 114.880  1.00  0.00     0.000 A 
ATOM      4  C   UNL     1     106.276  94.910 116.009  1.00  0.00     0.119 A 
ATOM      5  C   UNL     1     104.779  96.557 115.079  1.00  0.00     0.017 A 
ATOM      6  N   UNL     1     105.859  95.252 117.256  1.00  0.00    -0.264 NA
ATOM      7  C   UNL     1     104.926  96.218 117.462  1.00  0.00     0.116 A 
BRANCH   3   8
ATOM      8  C   UNL     1     106.195  95.193 113.512  1.00  0.00    -0.017 A 
ATOM      9  C   UNL     1     107.047  94.506 110.921  1.00  0.00     0.123 A 
ATOM     10  C   UNL     1     107.356  93.676 112.001  1.00  0.00     0.040 A 
ATOM     11  C   UNL     1     106.314  95.677 111.128  1.00  0.00     0.040 A 
ATOM     12  C   UNL     1     106.934  94.015 113.290  1.00  0.00     0.012 A 
ATOM     13  C   UNL     1     105.890  96.021 112.415  1.00  0.00     0.012 A 
ATOM     14  F   UNL     1     107.457  94.174 109.671  1.00  0.00    -0.207 F 
ENDBRANCH   3   8
ENDBRANCH   1   2
BRANCH   1  15
ATOM     15  N   UNL     1     102.011  97.401 116.819  1.00  0.00    -0.309 NA
ATOM     16  H   UNL     1     102.117  96.390 116.983  1.00  0.00     0.123 HD
BRANCH  15  17
ATOM     17  C   UNL     1     101.092  97.601 115.683  1.00  0.00     0.126 C 
BRANCH  17  18
ATOM     18  C   UNL     1     101.163  96.456 114.654  1.00  0.00     0.187 C 
ATOM     19  C   UNL     1     101.960  96.889 113.411  1.00  0.00     0.051 C 
ATOM     20  O   UNL     1     101.777  95.310 115.247  1.00  0.00    -0.489 OA
ATOM     21  C   UNL     1     102.066  95.723 112.419  1.00  0.00     0.043 C 
ATOM     22  C   UNL     1     102.354  94.290 114.481  1.00  0.00     0.122 A 
ATOM     23  C   UNL     1     102.539  94.461 113.094  1.00  0.00    -0.006 A 
ATOM     24  C   UNL     1     102.773  93.110 115.103  1.00  0.00     0.047 A 
ATOM     25  C   UNL     1     103.109  93.423 112.341  1.00  0.00     0.007 A 
ATOM     26  C   UNL     1     103.354  92.087 114.347  1.00  0.00     0.004 A 
ATOM     27  C   UNL     1     103.518  92.243 112.968  1.00  0.00     0.001 A 
ENDBRANCH  17  18
ENDBRANCH  15  17
ENDBRANCH   1  15
TORSDOF 5
ENDMDL
MODEL 13
REMARK VINA RESULT:      -7.4      3.728      9.540
REMARK SMILES Fc1ccc(-c2cncc(CNC[C@H]3CCc4ccccc4O3)c2)cc1
REMARK SMILES IDX 11 1 10 2 6 3 7 4 24 5 8 6 9 7 5 8 2 9 3 10 26 11 4 12 25 13
REMARK SMILES IDX 1 14 12 15 13 17 14 18 15 19 23 20 16 21 22 22 17 23 21 24
REMARK SMILES IDX 18 25 20 26 19 27
REMARK H PARENT 12 16
ROOT
ATOM      1  C   UNL     1      96.736 107.997 112.119  1.00  0.00     0.118 C 
ENDROOT
BRANCH   1   2
ATOM      2  C   UNL     1      97.320 107.308 113.322  1.00  0.00    -0.015 A 
ATOM      3  C   UNL     1      97.838 105.265 114.543  1.00  0.00     0.000 A 
ATOM      4  C   UNL     1      98.448 106.053 115.533  1.00  0.00     0.119 A 
ATOM      5  C   UNL     1      97.274 105.912 113.431  1.00  0.00     0.017 A 
ATOM      6  N   UNL     1      98.485 107.406 115.409  1.00  0.00    -0.264 NA
ATOM      7  C   UNL     1      97.944 108.043 114.339  1.00  0.00     0.116 A 
BRANCH   3   8
ATOM      8  C   UNL     1      97.793 103.785 114.667  1.00  0.00    -0.017 A 
ATOM      9  C   UNL     1      97.707 100.984 114.901  1.00  0.00     0.123 A 
ATOM     10  C   UNL     1      97.081 101.614 113.823  1.00  0.00     0.040 A 
ATOM     11  C   UNL     1      98.377 101.745 115.862  1.00  0.00     0.040 A 
ATOM     12  C   UNL     1      97.122 103.007 113.705  1.00  0.00     0.012 A 
ATOM     13  C   UNL     1      98.420 103.138 115.748  1.00  0.00     0.012 A 
ATOM     14  F   UNL     1      97.667  99.633 115.014  1.00  0.00    -0.207 F 
ENDBRANCH   3   8
ENDBRANCH   1   2
BRANCH   1  15
ATOM     15  N   UNL     1      97.524 107.690 110.917  1.00  0.00    -0.309 NA
ATOM     16  H   UNL     1      98.393 108.243 110.943  1.00  0.00     0.123 HD
BRANCH  15  17
ATOM     17  C   UNL     1      96.805 108.001 109.667  1.00  0.00     0.126 C 
BRANCH  17  18
ATOM     18  C   UNL     1      97.713 107.919 108.424  1.00  0.00     0.187 C 
ATOM     19  C   UNL     1      98.636 106.691 108.504  1.00  0.00     0.051 C 
ATOM     20  O   UNL     1      96.912 107.846 107.243  1.00  0.00    -0.489 OA
ATOM     21  C   UNL     1      99.497 106.594 107.237  1.00  0.00     0.043 C 
ATOM     22  C   UNL     1      97.408 107.351 106.032  1.00  0.00     0.122 A 
ATOM     23  C   UNL     1      98.661 106.706 105.988  1.00  0.00    -0.006 A 
ATOM     24  C   UNL     1      96.643 107.474 104.868  1.00  0.00     0.047 A 
ATOM     25  C   UNL     1      99.147 106.226 104.762  1.00  0.00     0.007 A 
ATOM     26  C   UNL     1      97.129 106.979 103.654  1.00  0.00     0.004 A 
ATOM     27  C   UNL     1      98.381 106.359 103.601  1.00  0.00     0.001 A 
ENDBRANCH  17  18
ENDBRANCH  15  17
ENDBRANCH   1  15
TORSDOF 5
ENDMDL
MODEL 14
REMARK VINA RESULT:      -7.3     12.351     14.992
REMARK SMILES Fc1ccc(-c2cncc(CNC[C@H]3CCc4ccccc4O3)c2)cc1
REMARK SMILES IDX 11 1 10 2 6 3 7 4 24 5 8 6 9 7 5 8 2 9 3 10 26 11 4 12 25 13
REMARK SMILES IDX 1 14 12 15 13 17 14 18 15 19 23 20 16 21 22 22 17 23 21 24
REMARK SMILES IDX 18 25 20 26 19 27
REMARK H PARENT 12 16
ROOT
ATOM      1  C   UNL     1     106.409  96.758 111.607  1.00  0.00     0.118 C 
ENDROOT
BRANCH   1   2
ATOM      2  C   UNL     1     105.407  96.748 112.729  1.00  0.00    -0.015 A 
ATOM      3  C   UNL     1     103.099  96.621 113.500  1.00  0.00     0.000 A 
ATOM      4  C   UNL     1     103.574  96.686 114.820  1.00  0.00     0.119 A 
ATOM      5  C   UNL     1     104.036  96.651 112.453  1.00  0.00     0.017 A 
ATOM      6  N   UNL     1     104.907  96.776 115.068  1.00  0.00    -0.264 NA
ATOM      7  C   UNL     1     105.823  96.807 114.066  1.00  0.00     0.116 A 
BRANCH   3   8
ATOM      8  C   UNL     1     101.645  96.519 113.217  1.00  0.00    -0.017 A 
ATOM      9  C   UNL     1      98.890  96.328 112.681  1.00  0.00     0.123 A 
ATOM     10  C   UNL     1      99.820  95.991 111.693  1.00  0.00     0.040 A 
ATOM     11  C   UNL     1      99.330  96.759 113.935  1.00  0.00     0.040 A 
ATOM     12  C   UNL     1     101.189  96.086 111.957  1.00  0.00     0.012 A 
ATOM     13  C   UNL     1     100.698  96.856 114.203  1.00  0.00     0.012 A 
ATOM     14  F   UNL     1      97.562  96.235 112.422  1.00  0.00    -0.207 F 
ENDBRANCH   3   8
ENDBRANCH   1   2
BRANCH   1  15
ATOM     15  N   UNL     1     106.118  95.683 110.647  1.00  0.00    -0.309 NA
ATOM     16  H   UNL     1     105.165  95.333 110.825  1.00  0.00     0.123 HD
BRANCH  15  17
ATOM     17  C   UNL     1     107.061  94.554 110.749  1.00  0.00     0.126 C 
BRANCH  17  18
ATOM     18  C   UNL     1     106.604  93.489 111.765  1.00  0.00     0.187 C 
ATOM     19  C   UNL     1     107.281  93.710 113.128  1.00  0.00     0.051 C 
ATOM     20  O   UNL     1     105.184  93.541 111.915  1.00  0.00    -0.489 OA
ATOM     21  C   UNL     1     106.777  92.675 114.143  1.00  0.00     0.043 C 
ATOM     22  C   UNL     1     104.531  93.016 113.036  1.00  0.00     0.122 A 
ATOM     23  C   UNL     1     105.272  92.602 114.161  1.00  0.00    -0.006 A 
ATOM     24  C   UNL     1     103.135  92.928 113.046  1.00  0.00     0.047 A 
ATOM     25  C   UNL     1     104.600  92.067 115.272  1.00  0.00     0.007 A 
ATOM     26  C   UNL     1     102.474  92.408 114.163  1.00  0.00     0.004 A 
ATOM     27  C   UNL     1     103.206  91.976 115.272  1.00  0.00     0.001 A 
ENDBRANCH  17  18
ENDBRANCH  15  17
ENDBRANCH   1  15
TORSDOF 5
ENDMDL
MODEL 15
REMARK VINA RESULT:      -7.3     12.661     15.196
REMARK SMILES Fc1ccc(-c2cncc(CNC[C@H]3CCc4ccccc4O3)c2)cc1
REMARK SMILES IDX 11 1 10 2 6 3 7 4 24 5 8 6 9 7 5 8 2 9 3 10 26 11 4 12 25 13
REMARK SMILES IDX 1 14 12 15 13 17 14 18 15 19 23 20 16 21 22 22 17 23 21 24
REMARK SMILES IDX 18 25 20 26 19 27
REMARK H PARENT 12 16
ROOT
ATOM      1  C   UNL     1     100.897  97.559 114.545  1.00  0.00     0.118 C 
ENDROOT
BRANCH   1   2
ATOM      2  C   UNL     1     101.344  96.506 113.567  1.00  0.00    -0.015 A 
ATOM      3  C   UNL     1     103.100  95.104 112.627  1.00  0.00     0.000 A 
ATOM      4  C   UNL     1     102.138  94.526 111.783  1.00  0.00     0.119 A 
ATOM      5  C   UNL     1     102.685  96.103 113.524  1.00  0.00     0.017 A 
ATOM      6  N   UNL     1     100.842  94.928 111.842  1.00  0.00    -0.264 NA
ATOM      7  C   UNL     1     100.427  95.891 112.705  1.00  0.00     0.116 A 
BRANCH   3   8
ATOM      8  C   UNL     1     104.520  94.671 112.574  1.00  0.00    -0.017 A 
ATOM      9  C   UNL     1     107.209  93.851 112.473  1.00  0.00     0.123 A 
ATOM     10  C   UNL     1     106.896  95.208 112.579  1.00  0.00     0.040 A 
ATOM     11  C   UNL     1     106.186  92.901 112.419  1.00  0.00     0.040 A 
ATOM     12  C   UNL     1     105.561  95.618 112.628  1.00  0.00     0.012 A 
ATOM     13  C   UNL     1     104.849  93.306 112.468  1.00  0.00     0.012 A 
ATOM     14  F   UNL     1     108.505  93.455 112.425  1.00  0.00    -0.207 F 
ENDBRANCH   3   8
ENDBRANCH   1   2
BRANCH   1  15
ATOM     15  N   UNL     1     101.583  97.387 115.835  1.00  0.00    -0.309 NA
ATOM     16  H   UNL     1     102.557  97.106 115.654  1.00  0.00     0.123 HD
BRANCH  15  17
ATOM     17  C   UNL     1     100.948  96.365 116.687  1.00  0.00     0.126 C 
BRANCH  17  18
ATOM     18  C   UNL     1     101.884  95.178 116.987  1.00  0.00     0.187 C 
ATOM     19  C   UNL     1     101.478  93.943 116.166  1.00  0.00     0.051 C 
ATOM     20  O   UNL     1     103.234  95.537 116.685  1.00  0.00    -0.489 OA
ATOM     21  C   UNL     1     102.449  92.785 116.435  1.00  0.00     0.043 C 
ATOM     22  C   UNL     1     104.228  94.581 116.451  1.00  0.00     0.122 A 
ATOM     23  C   UNL     1     103.885  93.222 116.297  1.00  0.00    -0.006 A 
ATOM     24  C   UNL     1     105.563  94.982 116.344  1.00  0.00     0.047 A 
ATOM     25  C   UNL     1     104.898  92.276 116.075  1.00  0.00     0.007 A 
ATOM     26  C   UNL     1     106.563  94.034 116.107  1.00  0.00     0.004 A 
ATOM     27  C   UNL     1     106.231  92.683 115.976  1.00  0.00     0.001 A 
ENDBRANCH  17  18
ENDBRANCH  15  17
ENDBRANCH   1  15
TORSDOF 5
ENDMDL
