MODEL 1
REMARK VINA RESULT:     -11.1      0.000      0.000
REMARK SMILES O=C(O)c1nc2ccccc2n([C@@H]2C[C@H]3CCC[C@@H](C2)N3[C@H]2C[C@@H]3CCC[C@@H](C3)C2)c1=O
REMARK SMILES IDX 4 1 5 2 6 3 7 4 8 5 9 6 10 7 11 8 12 9 31 10 32 11 2 12 1 13
REMARK SMILES IDX 3 14 13 16 14 17 20 18 15 19 19 20 16 21 21 22 18 23 17 24
REMARK SMILES IDX 22 25 30 26 23 27 28 28 24 29 27 30 29 31 25 32 26 33
REMARK H PARENT 3 15
ROOT
ATOM      1  C   UNL     1     108.447 112.354  74.789  1.00  0.00     0.214 A 
ATOM      2  N   UNL     1     107.139 112.277  75.123  1.00  0.00    -0.234 NA
ATOM      3  C   UNL     1     106.735 112.187  76.409  1.00  0.00     0.088 A 
ATOM      4  C   UNL     1     105.371 112.040  76.686  1.00  0.00     0.030 A 
ATOM      5  C   UNL     1     104.937 111.854  77.996  1.00  0.00     0.002 A 
ATOM      6  C   UNL     1     105.865 111.787  79.032  1.00  0.00     0.002 A 
ATOM      7  C   UNL     1     107.230 111.943  78.771  1.00  0.00     0.028 A 
ATOM      8  C   UNL     1     107.694 112.205  77.453  1.00  0.00     0.070 A 
ATOM      9  N   UNL     1     109.029 112.429  77.142  1.00  0.00    -0.301 N 
ATOM     10  C   UNL     1     109.414 112.389  75.814  1.00  0.00     0.284 A 
ATOM     11  O   UNL     1     110.636 112.367  75.500  1.00  0.00    -0.267 OA
ENDROOT
BRANCH   1  12
ATOM     12  C   UNL     1     108.801 112.392  73.351  1.00  0.00     0.360 C 
ATOM     13  O   UNL     1     108.340 113.311  72.622  1.00  0.00    -0.244 OA
BRANCH  12  14
ATOM     14  O   UNL     1     109.640 111.434  72.788  1.00  0.00    -0.476 OA
ATOM     15  H   UNL     1     109.754 110.555  73.229  1.00  0.00     0.297 HD
ENDBRANCH  12  14
ENDBRANCH   1  12
BRANCH   9  16
ATOM     16  C   UNL     1     110.041 112.721  78.206  1.00  0.00     0.094 C 
ATOM     17  C   UNL     1     110.579 114.175  78.149  1.00  0.00     0.044 C 
ATOM     18  C   UNL     1     111.153 111.653  78.224  1.00  0.00     0.044 C 
ATOM     19  C   UNL     1     111.840 114.396  79.014  1.00  0.00     0.059 C 
ATOM     20  C   UNL     1     112.388 112.047  79.066  1.00  0.00     0.059 C 
ATOM     21  C   UNL     1     111.561 114.446  80.538  1.00  0.00     0.019 C 
ATOM     22  N   UNL     1     112.877 113.391  78.662  1.00  0.00    -0.294 NA
ATOM     23  C   UNL     1     112.163 111.939  80.594  1.00  0.00     0.019 C 
ATOM     24  C   UNL     1     111.324 113.077  81.195  1.00  0.00     0.003 C 
BRANCH  22  25
ATOM     25  C   UNL     1     114.264 113.726  79.138  1.00  0.00     0.057 C 
ATOM     26  C   UNL     1     114.676 115.162  78.678  1.00  0.00     0.022 C 
ATOM     27  C   UNL     1     115.293 112.658  78.648  1.00  0.00     0.022 C 
ATOM     28  C   UNL     1     116.188 115.476  78.684  1.00  0.00    -0.009 C 
ATOM     29  C   UNL     1     116.778 113.083  78.658  1.00  0.00    -0.009 C 
ATOM     30  C   UNL     1     116.786 115.664  80.099  1.00  0.00     0.004 C 
ATOM     31  C   UNL     1     116.955 114.404  77.921  1.00  0.00     0.007 C 
ATOM     32  C   UNL     1     117.401 113.163  80.072  1.00  0.00     0.004 C 
ATOM     33  C   UNL     1     116.920 114.362  80.909  1.00  0.00     0.001 C 
ENDBRANCH  22  25
ENDBRANCH   9  16
TORSDOF 4
ENDMDL
MODEL 2
REMARK VINA RESULT:     -10.8      1.908      3.115
REMARK SMILES O=C(O)c1nc2ccccc2n([C@@H]2C[C@H]3CCC[C@@H](C2)N3[C@H]2C[C@@H]3CCC[C@@H](C3)C2)c1=O
REMARK SMILES IDX 4 1 5 2 6 3 7 4 8 5 9 6 10 7 11 8 12 9 31 10 32 11 2 12 1 13
REMARK SMILES IDX 3 14 13 16 14 17 20 18 15 19 19 20 16 21 21 22 18 23 17 24
REMARK SMILES IDX 22 25 30 26 23 27 28 28 24 29 27 30 29 31 25 32 26 33
REMARK H PARENT 3 15
ROOT
ATOM      1  C   UNL     1     106.734 111.423  76.665  1.00  0.00     0.214 A 
ATOM      2  N   UNL     1     107.147 111.108  75.417  1.00  0.00    -0.234 NA
ATOM      3  C   UNL     1     108.410 111.347  75.000  1.00  0.00     0.088 A 
ATOM      4  C   UNL     1     108.756 111.062  73.675  1.00  0.00     0.030 A 
ATOM      5  C   UNL     1     110.023 111.384  73.196  1.00  0.00     0.002 A 
ATOM      6  C   UNL     1     110.941 112.017  74.031  1.00  0.00     0.002 A 
ATOM      7  C   UNL     1     110.612 112.297  75.360  1.00  0.00     0.028 A 
ATOM      8  C   UNL     1     109.352 111.916  75.895  1.00  0.00     0.070 A 
ATOM      9  N   UNL     1     108.991 112.114  77.221  1.00  0.00    -0.301 N 
ATOM     10  C   UNL     1     107.660 111.974  77.573  1.00  0.00     0.284 A 
ATOM     11  O   UNL     1     107.252 112.354  78.705  1.00  0.00    -0.267 OA
ENDROOT
BRANCH   1  12
ATOM     12  C   UNL     1     105.316 111.177  77.016  1.00  0.00     0.360 C 
ATOM     13  O   UNL     1     104.909 109.993  77.164  1.00  0.00    -0.244 OA
BRANCH  12  14
ATOM     14  O   UNL     1     104.422 112.230  77.192  1.00  0.00    -0.476 OA
ATOM     15  H   UNL     1     104.433 112.752  78.033  1.00  0.00     0.297 HD
ENDBRANCH  12  14
ENDBRANCH   1  12
BRANCH   9  16
ATOM     16  C   UNL     1     110.008 112.458  78.265  1.00  0.00     0.094 C 
ATOM     17  C   UNL     1     110.497 113.927  78.176  1.00  0.00     0.044 C 
ATOM     18  C   UNL     1     111.155 111.427  78.286  1.00  0.00     0.044 C 
ATOM     19  C   UNL     1     111.761 114.204  79.018  1.00  0.00     0.059 C 
ATOM     20  C   UNL     1     112.388 111.875  79.103  1.00  0.00     0.059 C 
ATOM     21  C   UNL     1     111.503 114.272  80.545  1.00  0.00     0.019 C 
ATOM     22  N   UNL     1     112.826 113.228  78.670  1.00  0.00    -0.294 NA
ATOM     23  C   UNL     1     112.187 111.788  80.635  1.00  0.00     0.019 C 
ATOM     24  C   UNL     1     111.319 112.908  81.229  1.00  0.00     0.003 C 
BRANCH  22  25
ATOM     25  C   UNL     1     114.208 113.617  79.120  1.00  0.00     0.057 C 
ATOM     26  C   UNL     1     114.554 115.069  78.657  1.00  0.00     0.022 C 
ATOM     27  C   UNL     1     115.269 112.591  78.606  1.00  0.00     0.022 C 
ATOM     28  C   UNL     1     116.052 115.442  78.635  1.00  0.00    -0.009 C 
ATOM     29  C   UNL     1     116.736 113.075  78.589  1.00  0.00    -0.009 C 
ATOM     30  C   UNL     1     116.670 115.651  80.038  1.00  0.00     0.004 C 
ATOM     31  C   UNL     1     116.846 114.404  77.853  1.00  0.00     0.007 C 
ATOM     32  C   UNL     1     117.382 113.176  79.991  1.00  0.00     0.004 C 
ATOM     33  C   UNL     1     116.870 114.352  80.841  1.00  0.00     0.001 C 
ENDBRANCH  22  25
ENDBRANCH   9  16
TORSDOF 4
ENDMDL
MODEL 3
REMARK VINA RESULT:      -9.6      2.630      8.447
REMARK SMILES O=C(O)c1nc2ccccc2n([C@@H]2C[C@H]3CCC[C@@H](C2)N3[C@H]2C[C@@H]3CCC[C@@H](C3)C2)c1=O
REMARK SMILES IDX 4 1 5 2 6 3 7 4 8 5 9 6 10 7 11 8 12 9 31 10 32 11 2 12 1 13
REMARK SMILES IDX 3 14 13 16 14 17 20 18 15 19 19 20 16 21 21 22 18 23 17 24
REMARK SMILES IDX 22 25 30 26 23 27 28 28 24 29 27 30 29 31 25 32 26 33
REMARK H PARENT 3 15
ROOT
ATOM      1  C   UNL     1     117.168 112.409  78.008  1.00  0.00     0.214 A 
ATOM      2  N   UNL     1     118.030 112.927  78.912  1.00  0.00    -0.234 NA
ATOM      3  C   UNL     1     117.618 113.745  79.905  1.00  0.00     0.088 A 
ATOM      4  C   UNL     1     118.569 114.304  80.766  1.00  0.00     0.030 A 
ATOM      5  C   UNL     1     118.181 115.221  81.739  1.00  0.00     0.002 A 
ATOM      6  C   UNL     1     116.845 115.604  81.840  1.00  0.00     0.002 A 
ATOM      7  C   UNL     1     115.884 115.045  80.993  1.00  0.00     0.028 A 
ATOM      8  C   UNL     1     116.240 114.055  80.038  1.00  0.00     0.070 A 
ATOM      9  N   UNL     1     115.321 113.421  79.213  1.00  0.00    -0.301 N 
ATOM     10  C   UNL     1     115.793 112.692  78.134  1.00  0.00     0.284 A 
ATOM     11  O   UNL     1     115.002 112.286  77.240  1.00  0.00    -0.267 OA
ENDROOT
BRANCH   1  12
ATOM     12  C   UNL     1     117.716 111.568  76.920  1.00  0.00     0.360 C 
ATOM     13  O   UNL     1     118.837 111.009  77.070  1.00  0.00    -0.244 OA
BRANCH  12  14
ATOM     14  O   UNL     1     117.015 111.374  75.733  1.00  0.00    -0.476 OA
ATOM     15  H   UNL     1     117.100 112.029  74.996  1.00  0.00     0.297 HD
ENDBRANCH  12  14
ENDBRANCH   1  12
BRANCH   9  16
ATOM     16  C   UNL     1     113.850 113.500  79.475  1.00  0.00     0.094 C 
ATOM     17  C   UNL     1     113.195 112.110  79.689  1.00  0.00     0.044 C 
ATOM     18  C   UNL     1     113.140 114.358  78.408  1.00  0.00     0.044 C 
ATOM     19  C   UNL     1     111.651 112.146  79.635  1.00  0.00     0.059 C 
ATOM     20  C   UNL     1     111.600 114.231  78.422  1.00  0.00     0.059 C 
ATOM     21  C   UNL     1     110.989 112.768  80.891  1.00  0.00     0.019 C 
ATOM     22  N   UNL     1     111.203 112.799  78.378  1.00  0.00    -0.294 NA
ATOM     23  C   UNL     1     110.920 114.991  79.587  1.00  0.00     0.019 C 
ATOM     24  C   UNL     1     111.044 114.302  80.955  1.00  0.00     0.003 C 
BRANCH  22  25
ATOM     25  C   UNL     1     109.762 112.555  78.022  1.00  0.00     0.057 C 
ATOM     26  C   UNL     1     109.470 111.024  77.909  1.00  0.00     0.022 C 
ATOM     27  C   UNL     1     109.381 113.303  76.704  1.00  0.00     0.022 C 
ATOM     28  C   UNL     1     108.201 110.624  77.125  1.00  0.00    -0.009 C 
ATOM     29  C   UNL     1     108.114 112.803  75.976  1.00  0.00    -0.009 C 
ATOM     30  C   UNL     1     106.880 110.907  77.880  1.00  0.00     0.004 C 
ATOM     31  C   UNL     1     108.187 111.297  75.759  1.00  0.00     0.007 C 
ATOM     32  C   UNL     1     106.790 113.185  76.680  1.00  0.00     0.004 C 
ATOM     33  C   UNL     1     106.511 112.400  77.974  1.00  0.00     0.001 C 
ENDBRANCH  22  25
ENDBRANCH   9  16
TORSDOF 4
ENDMDL
MODEL 4
REMARK VINA RESULT:      -9.4      2.414      3.625
REMARK SMILES O=C(O)c1nc2ccccc2n([C@@H]2C[C@H]3CCC[C@@H](C2)N3[C@H]2C[C@@H]3CCC[C@@H](C3)C2)c1=O
REMARK SMILES IDX 4 1 5 2 6 3 7 4 8 5 9 6 10 7 11 8 12 9 31 10 32 11 2 12 1 13
REMARK SMILES IDX 3 14 13 16 14 17 20 18 15 19 19 20 16 21 21 22 18 23 17 24
REMARK SMILES IDX 22 25 30 26 23 27 28 28 24 29 27 30 29 31 25 32 26 33
REMARK H PARENT 3 15
ROOT
ATOM      1  C   UNL     1     105.787 111.172  77.742  1.00  0.00     0.214 A 
ATOM      2  N   UNL     1     105.952 110.724  76.478  1.00  0.00    -0.234 NA
ATOM      3  C   UNL     1     107.080 110.966  75.775  1.00  0.00     0.088 A 
ATOM      4  C   UNL     1     107.161 110.535  74.446  1.00  0.00     0.030 A 
ATOM      5  C   UNL     1     108.274 110.851  73.672  1.00  0.00     0.002 A 
ATOM      6  C   UNL     1     109.300 111.623  74.214  1.00  0.00     0.002 A 
ATOM      7  C   UNL     1     109.236 112.051  75.543  1.00  0.00     0.028 A 
ATOM      8  C   UNL     1     108.145 111.683  76.376  1.00  0.00     0.070 A 
ATOM      9  N   UNL     1     108.057 112.026  77.719  1.00  0.00    -0.301 N 
ATOM     10  C   UNL     1     106.842 111.872  78.362  1.00  0.00     0.284 A 
ATOM     11  O   UNL     1     106.654 112.370  79.506  1.00  0.00    -0.267 OA
ENDROOT
BRANCH   1  12
ATOM     12  C   UNL     1     104.494 110.908  78.416  1.00  0.00     0.360 C 
ATOM     13  O   UNL     1     103.528 110.449  77.749  1.00  0.00    -0.244 OA
BRANCH  12  14
ATOM     14  O   UNL     1     104.327 111.151  79.776  1.00  0.00    -0.476 OA
ATOM     15  H   UNL     1     103.795 110.525  80.329  1.00  0.00     0.297 HD
ENDBRANCH  12  14
ENDBRANCH   1  12
BRANCH   9  16
ATOM     16  C   UNL     1     109.242 112.542  78.473  1.00  0.00     0.094 C 
ATOM     17  C   UNL     1     109.764 113.898  77.932  1.00  0.00     0.044 C 
ATOM     18  C   UNL     1     110.338 111.463  78.593  1.00  0.00     0.044 C 
ATOM     19  C   UNL     1     111.159 114.279  78.476  1.00  0.00     0.059 C 
ATOM     20  C   UNL     1     111.704 112.006  79.072  1.00  0.00     0.059 C 
ATOM     21  C   UNL     1     111.156 114.750  79.953  1.00  0.00     0.019 C 
ATOM     22  N   UNL     1     112.116 113.167  78.240  1.00  0.00    -0.294 NA
ATOM     23  C   UNL     1     111.754 112.323  80.586  1.00  0.00     0.019 C 
ATOM     24  C   UNL     1     111.036 113.621  80.988  1.00  0.00     0.003 C 
BRANCH  22  25
ATOM     25  C   UNL     1     113.566 113.547  78.363  1.00  0.00     0.057 C 
ATOM     26  C   UNL     1     114.307 112.596  79.358  1.00  0.00     0.022 C 
ATOM     27  C   UNL     1     113.713 115.042  78.794  1.00  0.00     0.022 C 
ATOM     28  C   UNL     1     115.643 113.114  79.934  1.00  0.00    -0.009 C 
ATOM     29  C   UNL     1     115.077 115.451  79.393  1.00  0.00    -0.009 C 
ATOM     30  C   UNL     1     116.811 113.103  78.920  1.00  0.00     0.004 C 
ATOM     31  C   UNL     1     115.462 114.506  80.523  1.00  0.00     0.007 C 
ATOM     32  C   UNL     1     116.219 115.545  78.353  1.00  0.00     0.004 C 
ATOM     33  C   UNL     1     116.712 114.185  77.828  1.00  0.00     0.001 C 
ENDBRANCH  22  25
ENDBRANCH   9  16
TORSDOF 4
ENDMDL
MODEL 5
REMARK VINA RESULT:      -8.8      2.807      8.327
REMARK SMILES O=C(O)c1nc2ccccc2n([C@@H]2C[C@H]3CCC[C@@H](C2)N3[C@H]2C[C@@H]3CCC[C@@H](C3)C2)c1=O
REMARK SMILES IDX 4 1 5 2 6 3 7 4 8 5 9 6 10 7 11 8 12 9 31 10 32 11 2 12 1 13
REMARK SMILES IDX 3 14 13 16 14 17 20 18 15 19 19 20 16 21 21 22 18 23 17 24
REMARK SMILES IDX 22 25 30 26 23 27 28 28 24 29 27 30 29 31 25 32 26 33
REMARK H PARENT 3 15
ROOT
ATOM      1  C   UNL     1     115.173 114.785  78.981  1.00  0.00     0.214 A 
ATOM      2  N   UNL     1     115.479 113.580  79.512  1.00  0.00    -0.234 NA
ATOM      3  C   UNL     1     114.525 112.681  79.840  1.00  0.00     0.088 A 
ATOM      4  C   UNL     1     114.902 111.480  80.451  1.00  0.00     0.030 A 
ATOM      5  C   UNL     1     113.933 110.578  80.881  1.00  0.00     0.002 A 
ATOM      6  C   UNL     1     112.583 110.883  80.727  1.00  0.00     0.002 A 
ATOM      7  C   UNL     1     112.193 112.074  80.108  1.00  0.00     0.028 A 
ATOM      8  C   UNL     1     113.161 112.980  79.597  1.00  0.00     0.070 A 
ATOM      9  N   UNL     1     112.834 114.148  78.920  1.00  0.00    -0.301 N 
ATOM     10  C   UNL     1     113.823 115.093  78.716  1.00  0.00     0.284 A 
ATOM     11  O   UNL     1     113.531 116.251  78.307  1.00  0.00    -0.267 OA
ENDROOT
BRANCH   1  12
ATOM     12  C   UNL     1     116.280 115.730  78.705  1.00  0.00     0.360 C 
ATOM     13  O   UNL     1     117.382 115.587  79.301  1.00  0.00    -0.244 OA
BRANCH  12  14
ATOM     14  O   UNL     1     116.130 116.772  77.794  1.00  0.00    -0.476 OA
ATOM     15  H   UNL     1     116.747 116.849  77.024  1.00  0.00     0.297 HD
ENDBRANCH  12  14
ENDBRANCH   1  12
BRANCH   9  16
ATOM     16  C   UNL     1     111.450 114.391  78.402  1.00  0.00     0.094 C 
ATOM     17  C   UNL     1     110.401 114.564  79.531  1.00  0.00     0.044 C 
ATOM     18  C   UNL     1     111.055 113.333  77.351  1.00  0.00     0.044 C 
ATOM     19  C   UNL     1     108.942 114.489  79.029  1.00  0.00     0.059 C 
ATOM     20  C   UNL     1     109.549 113.323  77.006  1.00  0.00     0.059 C 
ATOM     21  C   UNL     1     108.474 115.749  78.257  1.00  0.00     0.019 C 
ATOM     22  N   UNL     1     108.738 113.241  78.249  1.00  0.00    -0.294 NA
ATOM     23  C   UNL     1     109.108 114.494  76.096  1.00  0.00     0.019 C 
ATOM     24  C   UNL     1     108.989 115.848  76.813  1.00  0.00     0.003 C 
BRANCH  22  25
ATOM     25  C   UNL     1     107.299 112.860  78.039  1.00  0.00     0.057 C 
ATOM     26  C   UNL     1     106.968 111.516  78.767  1.00  0.00     0.022 C 
ATOM     27  C   UNL     1     106.963 112.774  76.515  1.00  0.00     0.022 C 
ATOM     28  C   UNL     1     105.705 110.770  78.288  1.00  0.00    -0.009 C 
ATOM     29  C   UNL     1     105.698 111.973  76.137  1.00  0.00    -0.009 C 
ATOM     30  C   UNL     1     104.377 111.433  78.726  1.00  0.00     0.004 C 
ATOM     31  C   UNL     1     105.736 110.591  76.775  1.00  0.00     0.007 C 
ATOM     32  C   UNL     1     104.371 112.692  76.479  1.00  0.00     0.004 C 
ATOM     33  C   UNL     1     104.046 112.741  77.983  1.00  0.00     0.001 C 
ENDBRANCH  22  25
ENDBRANCH   9  16
TORSDOF 4
ENDMDL
MODEL 6
REMARK VINA RESULT:      -8.1      3.636      8.822
REMARK SMILES O=C(O)c1nc2ccccc2n([C@@H]2C[C@H]3CCC[C@@H](C2)N3[C@H]2C[C@@H]3CCC[C@@H](C3)C2)c1=O
REMARK SMILES IDX 4 1 5 2 6 3 7 4 8 5 9 6 10 7 11 8 12 9 31 10 32 11 2 12 1 13
REMARK SMILES IDX 3 14 13 16 14 17 20 18 15 19 19 20 16 21 21 22 18 23 17 24
REMARK SMILES IDX 22 25 30 26 23 27 28 28 24 29 27 30 29 31 25 32 26 33
REMARK H PARENT 3 15
ROOT
ATOM      1  C   UNL     1     117.321 114.774  80.821  1.00  0.00     0.214 A 
ATOM      2  N   UNL     1     117.975 114.154  79.813  1.00  0.00    -0.234 NA
ATOM      3  C   UNL     1     117.320 113.463  78.855  1.00  0.00     0.088 A 
ATOM      4  C   UNL     1     118.059 112.786  77.878  1.00  0.00     0.030 A 
ATOM      5  C   UNL     1     117.412 111.993  76.934  1.00  0.00     0.002 A 
ATOM      6  C   UNL     1     116.027 111.852  76.977  1.00  0.00     0.002 A 
ATOM      7  C   UNL     1     115.277 112.532  77.941  1.00  0.00     0.028 A 
ATOM      8  C   UNL     1     115.904 113.403  78.872  1.00  0.00     0.070 A 
ATOM      9  N   UNL     1     115.206 114.151  79.811  1.00  0.00    -0.301 N 
ATOM     10  C   UNL     1     115.912 114.739  80.846  1.00  0.00     0.284 A 
ATOM     11  O   UNL     1     115.307 115.237  81.834  1.00  0.00    -0.267 OA
ENDROOT
BRANCH   1  12
ATOM     12  C   UNL     1     118.124 115.460  81.860  1.00  0.00     0.360 C 
ATOM     13  O   UNL     1     119.238 114.979  82.202  1.00  0.00    -0.244 OA
BRANCH  12  14
ATOM     14  O   UNL     1     117.676 116.632  82.462  1.00  0.00    -0.476 OA
ATOM     15  H   UNL     1     116.717 116.873  82.423  1.00  0.00     0.297 HD
ENDBRANCH  12  14
ENDBRANCH   1  12
BRANCH   9  16
ATOM     16  C   UNL     1     113.724 114.338  79.717  1.00  0.00     0.094 C 
ATOM     17  C   UNL     1     112.922 113.129  80.264  1.00  0.00     0.044 C 
ATOM     18  C   UNL     1     113.306 114.761  78.294  1.00  0.00     0.044 C 
ATOM     19  C   UNL     1     111.426 113.162  79.882  1.00  0.00     0.059 C 
ATOM     20  C   UNL     1     111.786 114.667  78.031  1.00  0.00     0.059 C 
ATOM     21  C   UNL     1     110.594 114.205  80.672  1.00  0.00     0.019 C 
ATOM     22  N   UNL     1     111.282 113.322  78.412  1.00  0.00    -0.294 NA
ATOM     23  C   UNL     1     110.967 115.806  78.686  1.00  0.00     0.019 C 
ATOM     24  C   UNL     1     110.769 115.657  80.202  1.00  0.00     0.003 C 
BRANCH  22  25
ATOM     25  C   UNL     1     109.919 112.984  77.873  1.00  0.00     0.057 C 
ATOM     26  C   UNL     1     109.201 111.943  78.792  1.00  0.00     0.022 C 
ATOM     27  C   UNL     1     110.015 112.468  76.401  1.00  0.00     0.022 C 
ATOM     28  C   UNL     1     108.026 111.167  78.160  1.00  0.00    -0.009 C 
ATOM     29  C   UNL     1     108.802 111.669  75.875  1.00  0.00    -0.009 C 
ATOM     30  C   UNL     1     106.743 112.011  77.970  1.00  0.00     0.004 C 
ATOM     31  C   UNL     1     108.452 110.543  76.838  1.00  0.00     0.007 C 
ATOM     32  C   UNL     1     107.555 112.538  75.582  1.00  0.00     0.004 C 
ATOM     33  C   UNL     1     106.833 113.054  76.840  1.00  0.00     0.001 C 
ENDBRANCH  22  25
ENDBRANCH   9  16
TORSDOF 4
ENDMDL
MODEL 7
REMARK VINA RESULT:      -7.9      3.485      8.668
REMARK SMILES O=C(O)c1nc2ccccc2n([C@@H]2C[C@H]3CCC[C@@H](C2)N3[C@H]2C[C@@H]3CCC[C@@H](C3)C2)c1=O
REMARK SMILES IDX 4 1 5 2 6 3 7 4 8 5 9 6 10 7 11 8 12 9 31 10 32 11 2 12 1 13
REMARK SMILES IDX 3 14 13 16 14 17 20 18 15 19 19 20 16 21 21 22 18 23 17 24
REMARK SMILES IDX 22 25 30 26 23 27 28 28 24 29 27 30 29 31 25 32 26 33
REMARK H PARENT 3 15
ROOT
ATOM      1  C   UNL     1     117.646 114.286  80.161  1.00  0.00     0.214 A 
ATOM      2  N   UNL     1     117.658 115.489  79.545  1.00  0.00    -0.234 NA
ATOM      3  C   UNL     1     116.575 115.970  78.896  1.00  0.00     0.088 A 
ATOM      4  C   UNL     1     116.674 117.191  78.219  1.00  0.00     0.030 A 
ATOM      5  C   UNL     1     115.601 117.665  77.468  1.00  0.00     0.002 A 
ATOM      6  C   UNL     1     114.435 116.908  77.367  1.00  0.00     0.002 A 
ATOM      7  C   UNL     1     114.320 115.693  78.048  1.00  0.00     0.028 A 
ATOM      8  C   UNL     1     115.372 115.220  78.878  1.00  0.00     0.070 A 
ATOM      9  N   UNL     1     115.292 114.052  79.625  1.00  0.00    -0.301 N 
ATOM     10  C   UNL     1     116.454 113.533  80.168  1.00  0.00     0.284 A 
ATOM     11  O   UNL     1     116.469 112.372  80.662  1.00  0.00    -0.267 OA
ENDROOT
BRANCH   1  12
ATOM     12  C   UNL     1     118.897 113.813  80.799  1.00  0.00     0.360 C 
ATOM     13  O   UNL     1     119.439 114.512  81.697  1.00  0.00    -0.244 OA
BRANCH  12  14
ATOM     14  O   UNL     1     119.483 112.605  80.430  1.00  0.00    -0.476 OA
ATOM     15  H   UNL     1     120.053 112.559  79.623  1.00  0.00     0.297 HD
ENDBRANCH  12  14
ENDBRANCH   1  12
BRANCH   9  16
ATOM     16  C   UNL     1     113.985 113.362  79.860  1.00  0.00     0.094 C 
ATOM     17  C   UNL     1     113.747 112.167  78.900  1.00  0.00     0.044 C 
ATOM     18  C   UNL     1     112.819 114.372  79.887  1.00  0.00     0.044 C 
ATOM     19  C   UNL     1     112.289 111.656  78.906  1.00  0.00     0.059 C 
ATOM     20  C   UNL     1     111.420 113.719  79.806  1.00  0.00     0.059 C 
ATOM     21  C   UNL     1     111.907 110.849  80.174  1.00  0.00     0.019 C 
ATOM     22  N   UNL     1     111.356 112.784  78.653  1.00  0.00    -0.294 NA
ATOM     23  C   UNL     1     110.965 113.052  81.127  1.00  0.00     0.019 C 
ATOM     24  C   UNL     1     111.637 111.703  81.423  1.00  0.00     0.003 C 
BRANCH  22  25
ATOM     25  C   UNL     1     109.966 112.372  78.252  1.00  0.00     0.057 C 
ATOM     26  C   UNL     1     110.008 111.368  77.055  1.00  0.00     0.022 C 
ATOM     27  C   UNL     1     109.092 113.622  77.912  1.00  0.00     0.022 C 
ATOM     28  C   UNL     1     108.701 111.210  76.248  1.00  0.00    -0.009 C 
ATOM     29  C   UNL     1     107.824 113.362  77.068  1.00  0.00    -0.009 C 
ATOM     30  C   UNL     1     107.597 110.416  76.986  1.00  0.00     0.004 C 
ATOM     31  C   UNL     1     108.176 112.572  75.815  1.00  0.00     0.007 C 
ATOM     32  C   UNL     1     106.683 112.665  77.846  1.00  0.00     0.004 C 
ATOM     33  C   UNL     1     106.940 111.179  78.151  1.00  0.00     0.001 C 
ENDBRANCH  22  25
ENDBRANCH   9  16
TORSDOF 4
ENDMDL
MODEL 8
REMARK VINA RESULT:      -7.8      1.918      2.864
REMARK SMILES O=C(O)c1nc2ccccc2n([C@@H]2C[C@H]3CCC[C@@H](C2)N3[C@H]2C[C@@H]3CCC[C@@H](C3)C2)c1=O
REMARK SMILES IDX 4 1 5 2 6 3 7 4 8 5 9 6 10 7 11 8 12 9 31 10 32 11 2 12 1 13
REMARK SMILES IDX 3 14 13 16 14 17 20 18 15 19 19 20 16 21 21 22 18 23 17 24
REMARK SMILES IDX 22 25 30 26 23 27 28 28 24 29 27 30 29 31 25 32 26 33
REMARK H PARENT 3 15
ROOT
ATOM      1  C   UNL     1     108.414 111.814  75.777  1.00  0.00     0.214 A 
ATOM      2  N   UNL     1     108.376 112.980  75.095  1.00  0.00    -0.234 NA
ATOM      3  C   UNL     1     109.064 114.069  75.502  1.00  0.00     0.088 A 
ATOM      4  C   UNL     1     108.928 115.267  74.791  1.00  0.00     0.030 A 
ATOM      5  C   UNL     1     109.554 116.425  75.243  1.00  0.00     0.002 A 
ATOM      6  C   UNL     1     110.297 116.400  76.421  1.00  0.00     0.002 A 
ATOM      7  C   UNL     1     110.450 115.208  77.135  1.00  0.00     0.028 A 
ATOM      8  C   UNL     1     109.880 113.995  76.659  1.00  0.00     0.070 A 
ATOM      9  N   UNL     1     110.049 112.771  77.292  1.00  0.00    -0.301 N 
ATOM     10  C   UNL     1     109.233 111.717  76.920  1.00  0.00     0.284 A 
ATOM     11  O   UNL     1     109.197 110.660  77.609  1.00  0.00    -0.267 OA
ENDROOT
BRANCH   1  12
ATOM     12  C   UNL     1     107.582 110.689  75.289  1.00  0.00     0.360 C 
ATOM     13  O   UNL     1     107.298 110.614  74.063  1.00  0.00    -0.244 OA
BRANCH  12  14
ATOM     14  O   UNL     1     107.113 109.708  76.157  1.00  0.00    -0.476 OA
ATOM     15  H   UNL     1     107.706 109.347  76.863  1.00  0.00     0.297 HD
ENDBRANCH  12  14
ENDBRANCH   1  12
BRANCH   9  16
ATOM     16  C   UNL     1     111.094 112.572  78.345  1.00  0.00     0.094 C 
ATOM     17  C   UNL     1     111.384 113.857  79.163  1.00  0.00     0.044 C 
ATOM     18  C   UNL     1     112.360 111.917  77.756  1.00  0.00     0.044 C 
ATOM     19  C   UNL     1     112.667 113.763  80.019  1.00  0.00     0.059 C 
ATOM     20  C   UNL     1     113.587 111.968  78.695  1.00  0.00     0.059 C 
ATOM     21  C   UNL     1     112.524 112.868  81.277  1.00  0.00     0.019 C 
ATOM     22  N   UNL     1     113.815 113.359  79.167  1.00  0.00    -0.294 NA
ATOM     23  C   UNL     1     113.523 110.956  79.864  1.00  0.00     0.019 C 
ATOM     24  C   UNL     1     112.569 111.357  81.001  1.00  0.00     0.003 C 
BRANCH  22  25
ATOM     25  C   UNL     1     115.168 113.603  79.777  1.00  0.00     0.057 C 
ATOM     26  C   UNL     1     115.307 115.090  80.240  1.00  0.00     0.022 C 
ATOM     27  C   UNL     1     116.306 113.212  78.781  1.00  0.00     0.022 C 
ATOM     28  C   UNL     1     116.745 115.608  80.458  1.00  0.00    -0.009 C 
ATOM     29  C   UNL     1     117.701 113.812  79.065  1.00  0.00    -0.009 C 
ATOM     30  C   UNL     1     117.427 115.057  81.733  1.00  0.00     0.004 C 
ATOM     31  C   UNL     1     117.603 115.323  79.232  1.00  0.00     0.007 C 
ATOM     32  C   UNL     1     118.424 113.179  80.278  1.00  0.00     0.004 C 
ATOM     33  C   UNL     1     117.834 113.574  81.644  1.00  0.00     0.001 C 
ENDBRANCH  22  25
ENDBRANCH   9  16
TORSDOF 4
ENDMDL
MODEL 9
REMARK VINA RESULT:      -7.8      2.599      8.085
REMARK SMILES O=C(O)c1nc2ccccc2n([C@@H]2C[C@H]3CCC[C@@H](C2)N3[C@H]2C[C@@H]3CCC[C@@H](C3)C2)c1=O
REMARK SMILES IDX 4 1 5 2 6 3 7 4 8 5 9 6 10 7 11 8 12 9 31 10 32 11 2 12 1 13
REMARK SMILES IDX 3 14 13 16 14 17 20 18 15 19 19 20 16 21 21 22 18 23 17 24
REMARK SMILES IDX 22 25 30 26 23 27 28 28 24 29 27 30 29 31 25 32 26 33
REMARK H PARENT 3 15
ROOT
ATOM      1  C   UNL     1     113.978 114.200  79.106  1.00  0.00     0.214 A 
ATOM      2  N   UNL     1     114.426 113.154  79.836  1.00  0.00    -0.234 NA
ATOM      3  C   UNL     1     113.666 112.060  80.058  1.00  0.00     0.088 A 
ATOM      4  C   UNL     1     114.162 111.042  80.881  1.00  0.00     0.030 A 
ATOM      5  C   UNL     1     113.363 109.946  81.199  1.00  0.00     0.002 A 
ATOM      6  C   UNL     1     112.057 109.875  80.719  1.00  0.00     0.002 A 
ATOM      7  C   UNL     1     111.554 110.880  79.887  1.00  0.00     0.028 A 
ATOM      8  C   UNL     1     112.370 111.973  79.489  1.00  0.00     0.070 A 
ATOM      9  N   UNL     1     111.946 112.968  78.618  1.00  0.00    -0.301 N 
ATOM     10  C   UNL     1     112.698 114.125  78.518  1.00  0.00     0.284 A 
ATOM     11  O   UNL     1     112.244 115.136  77.916  1.00  0.00    -0.267 OA
ENDROOT
BRANCH   1  12
ATOM     12  C   UNL     1     114.858 115.382  78.962  1.00  0.00     0.360 C 
ATOM     13  O   UNL     1     115.787 115.570  79.794  1.00  0.00    -0.244 OA
BRANCH  12  14
ATOM     14  O   UNL     1     114.685 116.290  77.921  1.00  0.00    -0.476 OA
ATOM     15  H   UNL     1     115.072 116.100  77.030  1.00  0.00     0.297 HD
ENDBRANCH  12  14
ENDBRANCH   1  12
BRANCH   9  16
ATOM     16  C   UNL     1     110.712 112.805  77.787  1.00  0.00     0.094 C 
ATOM     17  C   UNL     1     110.709 111.497  76.953  1.00  0.00     0.044 C 
ATOM     18  C   UNL     1     110.434 114.070  76.950  1.00  0.00     0.044 C 
ATOM     19  C   UNL     1     109.618 111.469  75.861  1.00  0.00     0.059 C 
ATOM     20  C   UNL     1     109.375 113.870  75.841  1.00  0.00     0.059 C 
ATOM     21  C   UNL     1     108.183 111.249  76.405  1.00  0.00     0.019 C 
ATOM     22  N   UNL     1     109.719 112.685  75.012  1.00  0.00    -0.294 NA
ATOM     23  C   UNL     1     107.921 113.814  76.368  1.00  0.00     0.019 C 
ATOM     24  C   UNL     1     107.540 112.489  77.047  1.00  0.00     0.003 C 
BRANCH  22  25
ATOM     25  C   UNL     1     108.986 112.599  73.701  1.00  0.00     0.057 C 
ATOM     26  C   UNL     1     109.320 111.261  72.965  1.00  0.00     0.022 C 
ATOM     27  C   UNL     1     109.310 113.835  72.802  1.00  0.00     0.022 C 
ATOM     28  C   UNL     1     109.026 111.221  71.450  1.00  0.00    -0.009 C 
ATOM     29  C   UNL     1     109.014 113.681  71.293  1.00  0.00    -0.009 C 
ATOM     30  C   UNL     1     107.521 111.137  71.102  1.00  0.00     0.004 C 
ATOM     31  C   UNL     1     109.666 112.415  70.754  1.00  0.00     0.007 C 
ATOM     32  C   UNL     1     107.508 113.708  70.941  1.00  0.00     0.004 C 
ATOM     33  C   UNL     1     106.739 112.439  71.352  1.00  0.00     0.001 C 
ENDBRANCH  22  25
ENDBRANCH   9  16
TORSDOF 4
ENDMDL
MODEL 10
REMARK VINA RESULT:      -7.6      4.407      8.405
REMARK SMILES O=C(O)c1nc2ccccc2n([C@@H]2C[C@H]3CCC[C@@H](C2)N3[C@H]2C[C@@H]3CCC[C@@H](C3)C2)c1=O
REMARK SMILES IDX 4 1 5 2 6 3 7 4 8 5 9 6 10 7 11 8 12 9 31 10 32 11 2 12 1 13
REMARK SMILES IDX 3 14 13 16 14 17 20 18 15 19 19 20 16 21 21 22 18 23 17 24
REMARK SMILES IDX 22 25 30 26 23 27 28 28 24 29 27 30 29 31 25 32 26 33
REMARK H PARENT 3 15
ROOT
ATOM      1  C   UNL     1     108.827 111.000  71.818  1.00  0.00     0.214 A 
ATOM      2  N   UNL     1     110.024 110.380  71.710  1.00  0.00    -0.234 NA
ATOM      3  C   UNL     1     110.872 110.277  72.757  1.00  0.00     0.088 A 
ATOM      4  C   UNL     1     112.125 109.685  72.562  1.00  0.00     0.030 A 
ATOM      5  C   UNL     1     113.052 109.648  73.601  1.00  0.00     0.002 A 
ATOM      6  C   UNL     1     112.742 110.226  74.830  1.00  0.00     0.002 A 
ATOM      7  C   UNL     1     111.489 110.810  75.041  1.00  0.00     0.028 A 
ATOM      8  C   UNL     1     110.499 110.799  74.021  1.00  0.00     0.070 A 
ATOM      9  N   UNL     1     109.219 111.309  74.192  1.00  0.00    -0.301 N 
ATOM     10  C   UNL     1     108.432 111.511  73.071  1.00  0.00     0.284 A 
ATOM     11  O   UNL     1     107.359 112.169  73.150  1.00  0.00    -0.267 OA
ENDROOT
BRANCH   1  12
ATOM     12  C   UNL     1     107.987 111.116  70.604  1.00  0.00     0.360 C 
ATOM     13  O   UNL     1     107.566 110.071  70.038  1.00  0.00    -0.244 OA
BRANCH  12  14
ATOM     14  O   UNL     1     107.647 112.359  70.077  1.00  0.00    -0.476 OA
ATOM     15  H   UNL     1     106.732 112.517  69.735  1.00  0.00     0.297 HD
ENDBRANCH  12  14
ENDBRANCH   1  12
BRANCH   9  16
ATOM     16  C   UNL     1     108.679 111.628  75.551  1.00  0.00     0.094 C 
ATOM     17  C   UNL     1     108.131 110.382  76.295  1.00  0.00     0.044 C 
ATOM     18  C   UNL     1     107.677 112.799  75.491  1.00  0.00     0.044 C 
ATOM     19  C   UNL     1     107.287 110.733  77.540  1.00  0.00     0.059 C 
ATOM     20  C   UNL     1     106.845 112.981  76.781  1.00  0.00     0.059 C 
ATOM     21  C   UNL     1     108.120 111.221  78.752  1.00  0.00     0.019 C 
ATOM     22  N   UNL     1     106.214 111.692  77.170  1.00  0.00    -0.294 NA
ATOM     23  C   UNL     1     107.634 113.622  77.949  1.00  0.00     0.019 C 
ATOM     24  C   UNL     1     108.616 112.672  78.651  1.00  0.00     0.003 C 
BRANCH  22  25
ATOM     25  C   UNL     1     105.104 111.813  78.177  1.00  0.00     0.057 C 
ATOM     26  C   UNL     1     104.692 110.407  78.721  1.00  0.00     0.022 C 
ATOM     27  C   UNL     1     103.878 112.565  77.566  1.00  0.00     0.022 C 
ATOM     28  C   UNL     1     103.305 110.311  79.392  1.00  0.00    -0.009 C 
ATOM     29  C   UNL     1     102.527 112.375  78.292  1.00  0.00    -0.009 C 
ATOM     30  C   UNL     1     103.237 110.967  80.792  1.00  0.00     0.004 C 
ATOM     31  C   UNL     1     102.233 110.893  78.480  1.00  0.00     0.007 C 
ATOM     32  C   UNL     1     102.426 113.124  79.641  1.00  0.00     0.004 C 
ATOM     33  C   UNL     1     103.267 112.506  80.773  1.00  0.00     0.001 C 
ENDBRANCH  22  25
ENDBRANCH   9  16
TORSDOF 4
ENDMDL
MODEL 11
REMARK VINA RESULT:      -7.6      2.756      8.446
REMARK SMILES O=C(O)c1nc2ccccc2n([C@@H]2C[C@H]3CCC[C@@H](C2)N3[C@H]2C[C@@H]3CCC[C@@H](C3)C2)c1=O
REMARK SMILES IDX 4 1 5 2 6 3 7 4 8 5 9 6 10 7 11 8 12 9 31 10 32 11 2 12 1 13
REMARK SMILES IDX 3 14 13 16 14 17 20 18 15 19 19 20 16 21 21 22 18 23 17 24
REMARK SMILES IDX 22 25 30 26 23 27 28 28 24 29 27 30 29 31 25 32 26 33
REMARK H PARENT 3 15
ROOT
ATOM      1  C   UNL     1     115.797 116.590  78.114  1.00  0.00     0.214 A 
ATOM      2  N   UNL     1     117.031 116.220  78.522  1.00  0.00    -0.234 NA
ATOM      3  C   UNL     1     117.229 115.145  79.316  1.00  0.00     0.088 A 
ATOM      4  C   UNL     1     118.524 114.855  79.761  1.00  0.00     0.030 A 
ATOM      5  C   UNL     1     118.741 113.809  80.653  1.00  0.00     0.002 A 
ATOM      6  C   UNL     1     117.663 113.064  81.126  1.00  0.00     0.002 A 
ATOM      7  C   UNL     1     116.366 113.336  80.681  1.00  0.00     0.028 A 
ATOM      8  C   UNL     1     116.124 114.352  79.718  1.00  0.00     0.070 A 
ATOM      9  N   UNL     1     114.868 114.627  79.194  1.00  0.00    -0.301 N 
ATOM     10  C   UNL     1     114.688 115.804  78.489  1.00  0.00     0.284 A 
ATOM     11  O   UNL     1     113.529 116.201  78.186  1.00  0.00    -0.267 OA
ENDROOT
BRANCH   1  12
ATOM     12  C   UNL     1     115.669 117.815  77.291  1.00  0.00     0.360 C 
ATOM     13  O   UNL     1     114.573 118.071  76.723  1.00  0.00    -0.244 OA
BRANCH  12  14
ATOM     14  O   UNL     1     116.736 118.697  77.138  1.00  0.00    -0.476 OA
ATOM     15  H   UNL     1     117.404 118.546  76.424  1.00  0.00     0.297 HD
ENDBRANCH  12  14
ENDBRANCH   1  12
BRANCH   9  16
ATOM     16  C   UNL     1     113.724 113.677  79.366  1.00  0.00     0.094 C 
ATOM     17  C   UNL     1     113.562 112.699  78.173  1.00  0.00     0.044 C 
ATOM     18  C   UNL     1     112.426 114.428  79.727  1.00  0.00     0.044 C 
ATOM     19  C   UNL     1     112.214 111.943  78.179  1.00  0.00     0.059 C 
ATOM     20  C   UNL     1     111.148 113.566  79.611  1.00  0.00     0.059 C 
ATOM     21  C   UNL     1     112.122 110.823  79.246  1.00  0.00     0.019 C 
ATOM     22  N   UNL     1     111.091 112.911  78.278  1.00  0.00    -0.294 NA
ATOM     23  C   UNL     1     110.969 112.555  80.769  1.00  0.00     0.019 C 
ATOM     24  C   UNL     1     111.876 111.318  80.680  1.00  0.00     0.003 C 
BRANCH  22  25
ATOM     25  C   UNL     1     109.745 112.352  77.908  1.00  0.00     0.057 C 
ATOM     26  C   UNL     1     109.859 111.404  76.670  1.00  0.00     0.022 C 
ATOM     27  C   UNL     1     108.718 113.501  77.648  1.00  0.00     0.022 C 
ATOM     28  C   UNL     1     108.550 111.121  75.901  1.00  0.00    -0.009 C 
ATOM     29  C   UNL     1     107.458 113.123  76.837  1.00  0.00    -0.009 C 
ATOM     30  C   UNL     1     107.576 110.175  76.644  1.00  0.00     0.004 C 
ATOM     31  C   UNL     1     107.853 112.426  75.542  1.00  0.00     0.007 C 
ATOM     32  C   UNL     1     106.437 112.268  77.623  1.00  0.00     0.004 C 
ATOM     33  C   UNL     1     106.878 110.812  77.860  1.00  0.00     0.001 C 
ENDBRANCH  22  25
ENDBRANCH   9  16
TORSDOF 4
ENDMDL
MODEL 12
REMARK VINA RESULT:      -7.3      3.603      8.132
REMARK SMILES O=C(O)c1nc2ccccc2n([C@@H]2C[C@H]3CCC[C@@H](C2)N3[C@H]2C[C@@H]3CCC[C@@H](C3)C2)c1=O
REMARK SMILES IDX 4 1 5 2 6 3 7 4 8 5 9 6 10 7 11 8 12 9 31 10 32 11 2 12 1 13
REMARK SMILES IDX 3 14 13 16 14 17 20 18 15 19 19 20 16 21 21 22 18 23 17 24
REMARK SMILES IDX 22 25 30 26 23 27 28 28 24 29 27 30 29 31 25 32 26 33
REMARK H PARENT 3 15
ROOT
ATOM      1  C   UNL     1     111.848 111.312  80.239  1.00  0.00     0.214 A 
ATOM      2  N   UNL     1     111.695 112.442  80.966  1.00  0.00    -0.234 NA
ATOM      3  C   UNL     1     110.885 113.446  80.565  1.00  0.00     0.088 A 
ATOM      4  C   UNL     1     110.824 114.618  81.328  1.00  0.00     0.030 A 
ATOM      5  C   UNL     1     110.068 115.702  80.888  1.00  0.00     0.002 A 
ATOM      6  C   UNL     1     109.392 115.630  79.673  1.00  0.00     0.002 A 
ATOM      7  C   UNL     1     109.435 114.461  78.907  1.00  0.00     0.028 A 
ATOM      8  C   UNL     1     110.141 113.315  79.365  1.00  0.00     0.070 A 
ATOM      9  N   UNL     1     110.170 112.108  78.679  1.00  0.00    -0.301 N 
ATOM     10  C   UNL     1     111.104 111.158  79.052  1.00  0.00     0.284 A 
ATOM     11  O   UNL     1     111.315 110.147  78.327  1.00  0.00    -0.267 OA
ENDROOT
BRANCH   1  12
ATOM     12  C   UNL     1     112.801 110.289  80.728  1.00  0.00     0.360 C 
ATOM     13  O   UNL     1     114.002 110.608  80.940  1.00  0.00    -0.244 OA
BRANCH  12  14
ATOM     14  O   UNL     1     112.394 108.978  80.965  1.00  0.00    -0.476 OA
ATOM     15  H   UNL     1     112.458 108.598  81.876  1.00  0.00     0.297 HD
ENDBRANCH  12  14
ENDBRANCH   1  12
BRANCH   9  16
ATOM     16  C   UNL     1     109.212 111.819  77.566  1.00  0.00     0.094 C 
ATOM     17  C   UNL     1     109.775 110.815  76.527  1.00  0.00     0.044 C 
ATOM     18  C   UNL     1     108.678 113.122  76.938  1.00  0.00     0.044 C 
ATOM     19  C   UNL     1     108.948 110.755  75.223  1.00  0.00     0.059 C 
ATOM     20  C   UNL     1     107.942 112.916  75.594  1.00  0.00     0.059 C 
ATOM     21  C   UNL     1     107.595 110.012  75.364  1.00  0.00     0.019 C 
ATOM     22  N   UNL     1     108.786 112.122  74.663  1.00  0.00    -0.294 NA
ATOM     23  C   UNL     1     106.520 112.324  75.745  1.00  0.00     0.019 C 
ATOM     24  C   UNL     1     106.486 110.819  76.056  1.00  0.00     0.003 C 
BRANCH  22  25
ATOM     25  C   UNL     1     108.348 112.164  73.225  1.00  0.00     0.057 C 
ATOM     26  C   UNL     1     109.066 111.052  72.393  1.00  0.00     0.022 C 
ATOM     27  C   UNL     1     108.598 113.579  72.610  1.00  0.00     0.022 C 
ATOM     28  C   UNL     1     109.082 111.244  70.861  1.00  0.00    -0.009 C 
ATOM     29  C   UNL     1     108.632 113.659  71.067  1.00  0.00    -0.009 C 
ATOM     30  C   UNL     1     107.716 110.992  70.181  1.00  0.00     0.004 C 
ATOM     31  C   UNL     1     109.604 112.630  70.506  1.00  0.00     0.007 C 
ATOM     32  C   UNL     1     107.244 113.515  70.398  1.00  0.00     0.004 C 
ATOM     33  C   UNL     1     106.666 112.089  70.439  1.00  0.00     0.001 C 
ENDBRANCH  22  25
ENDBRANCH   9  16
TORSDOF 4
ENDMDL
