MODEL 1
REMARK VINA RESULT:      -7.9      0.000      0.000
REMARK SMILES O=C(NCc1ccccc1)c1ccc(-c2ccc(-c3ccccc3)cc2)[nH]c1=O
REMARK SMILES IDX 29 1 27 2 14 3 11 4 13 5 28 6 12 7 2 9 1 10 3 11 4 13 5 14
REMARK SMILES IDX 6 15 10 16 7 17 9 18 8 19 15 20 16 21 26 22 17 23 25 24
REMARK SMILES IDX 18 25 19 26 20 27 24 28 21 29 23 30 22 31
REMARK H PARENT 27 8 3 12
ROOT
ATOM      1  O   UNL     1      98.965 108.725 111.516  1.00  0.00    -0.269 OA
ATOM      2  N   UNL     1      97.806 108.234 109.586  1.00  0.00    -0.321 N 
ATOM      3  C   UNL     1      96.617 108.013 108.919  1.00  0.00     0.048 A 
ATOM      4  C   UNL     1      96.598 108.611 111.669  1.00  0.00     0.104 A 
ATOM      5  C   UNL     1      95.456 108.089 109.591  1.00  0.00     0.028 A 
ATOM      6  C   UNL     1      97.899 108.533 110.936  1.00  0.00     0.261 A 
ATOM      7  C   UNL     1      95.455 108.394 111.003  1.00  0.00     0.022 A 
ATOM      8  H   UNL     1      98.669 108.170 109.051  1.00  0.00     0.170 HD
ENDROOT
BRANCH   4   9
ATOM      9  C   UNL     1      96.507 108.914 113.100  1.00  0.00     0.257 C 
ATOM     10  O   UNL     1      96.207 110.043 113.490  1.00  0.00    -0.269 OA
ATOM     11  N   UNL     1      96.791 107.823 113.902  1.00  0.00    -0.348 N 
ATOM     12  H   UNL     1      97.040 106.933 113.481  1.00  0.00     0.164 HD
BRANCH  11  13
ATOM     13  C   UNL     1      96.768 107.871 115.347  1.00  0.00     0.152 C 
BRANCH  13  14
ATOM     14  C   UNL     1      97.969 108.580 115.905  1.00  0.00    -0.029 A 
ATOM     15  C   UNL     1      99.236 108.325 115.380  1.00  0.00     0.005 A 
ATOM     16  C   UNL     1      97.818 109.494 116.947  1.00  0.00     0.005 A 
ATOM     17  C   UNL     1     100.351 108.983 115.898  1.00  0.00     0.000 A 
ATOM     18  C   UNL     1      98.933 110.153 117.465  1.00  0.00     0.000 A 
ATOM     19  C   UNL     1     100.200 109.897 116.940  1.00  0.00     0.000 A 
ENDBRANCH  13  14
ENDBRANCH  11  13
ENDBRANCH   4   9
BRANCH   3  20
ATOM     20  C   UNL     1      96.665 107.714 107.476  1.00  0.00    -0.002 A 
ATOM     21  C   UNL     1      95.757 108.321 106.608  1.00  0.00     0.011 A 
ATOM     22  C   UNL     1      97.620 106.827 106.978  1.00  0.00     0.011 A 
ATOM     23  C   UNL     1      95.802 108.040 105.242  1.00  0.00     0.009 A 
ATOM     24  C   UNL     1      97.665 106.546 105.613  1.00  0.00     0.009 A 
ATOM     25  C   UNL     1      96.757 107.152 104.745  1.00  0.00    -0.018 A 
BRANCH  25  26
ATOM     26  C   UNL     1      96.806 106.863 103.328  1.00  0.00    -0.018 A 
ATOM     27  C   UNL     1      98.026 106.579 102.717  1.00  0.00     0.009 A 
ATOM     28  C   UNL     1      95.633 106.869 102.573  1.00  0.00     0.009 A 
ATOM     29  C   UNL     1      98.075 106.300 101.351  1.00  0.00     0.001 A 
ATOM     30  C   UNL     1      95.681 106.590 101.208  1.00  0.00     0.001 A 
ATOM     31  C   UNL     1      96.902 106.306 100.596  1.00  0.00     0.000 A 
ENDBRANCH  25  26
ENDBRANCH   3  20
TORSDOF 5
ENDMDL
MODEL 2
REMARK VINA RESULT:      -7.0      1.556      2.391
REMARK SMILES O=C(NCc1ccccc1)c1ccc(-c2ccc(-c3ccccc3)cc2)[nH]c1=O
REMARK SMILES IDX 29 1 27 2 14 3 11 4 13 5 28 6 12 7 2 9 1 10 3 11 4 13 5 14
REMARK SMILES IDX 6 15 10 16 7 17 9 18 8 19 15 20 16 21 26 22 17 23 25 24
REMARK SMILES IDX 18 25 19 26 20 27 24 28 21 29 23 30 22 31
REMARK H PARENT 27 8 3 12
ROOT
ATOM      1  O   UNL     1      98.891 108.874 111.506  1.00  0.00    -0.269 OA
ATOM      2  N   UNL     1      97.765 108.255 109.594  1.00  0.00    -0.321 N 
ATOM      3  C   UNL     1      96.604 107.875 108.951  1.00  0.00     0.048 A 
ATOM      4  C   UNL     1      96.571 108.411 111.714  1.00  0.00     0.104 A 
ATOM      5  C   UNL     1      95.463 107.767 109.652  1.00  0.00     0.028 A 
ATOM      6  C   UNL     1      97.850 108.538 110.948  1.00  0.00     0.261 A 
ATOM      7  C   UNL     1      95.455 108.042 111.070  1.00  0.00     0.022 A 
ATOM      8  H   UNL     1      98.613 108.328 109.037  1.00  0.00     0.170 HD
ENDROOT
BRANCH   4   9
ATOM      9  C   UNL     1      96.475 108.670 113.152  1.00  0.00     0.257 C 
ATOM     10  O   UNL     1      96.264 109.806 113.578  1.00  0.00    -0.269 OA
ATOM     11  N   UNL     1      96.648 107.531 113.919  1.00  0.00    -0.348 N 
ATOM     12  H   UNL     1      96.830 106.639 113.470  1.00  0.00     0.164 HD
BRANCH  11  13
ATOM     13  C   UNL     1      96.599 107.530 115.365  1.00  0.00     0.152 C 
BRANCH  13  14
ATOM     14  C   UNL     1      97.217 106.292 115.948  1.00  0.00    -0.029 A 
ATOM     15  C   UNL     1      96.532 105.562 116.919  1.00  0.00     0.005 A 
ATOM     16  C   UNL     1      98.475 105.873 115.518  1.00  0.00     0.005 A 
ATOM     17  C   UNL     1      97.107 104.413 117.461  1.00  0.00     0.000 A 
ATOM     18  C   UNL     1      99.050 104.723 116.060  1.00  0.00     0.000 A 
ATOM     19  C   UNL     1      98.365 103.993 117.031  1.00  0.00     0.000 A 
ENDBRANCH  13  14
ENDBRANCH  11  13
ENDBRANCH   4   9
BRANCH   3  20
ATOM     20  C   UNL     1      96.656 107.613 107.501  1.00  0.00    -0.002 A 
ATOM     21  C   UNL     1      97.806 107.068 106.931  1.00  0.00     0.011 A 
ATOM     22  C   UNL     1      95.553 107.908 106.699  1.00  0.00     0.011 A 
ATOM     23  C   UNL     1      97.855 106.817 105.559  1.00  0.00     0.009 A 
ATOM     24  C   UNL     1      95.602 107.659 105.327  1.00  0.00     0.009 A 
ATOM     25  C   UNL     1      96.752 107.114 104.758  1.00  0.00    -0.018 A 
BRANCH  25  26
ATOM     26  C   UNL     1      96.802 106.852 103.336  1.00  0.00    -0.018 A 
ATOM     27  C   UNL     1      98.012 106.516 102.730  1.00  0.00     0.009 A 
ATOM     28  C   UNL     1      95.639 106.936 102.569  1.00  0.00     0.009 A 
ATOM     29  C   UNL     1      98.060 106.264 101.360  1.00  0.00     0.001 A 
ATOM     30  C   UNL     1      95.687 106.684 101.199  1.00  0.00     0.001 A 
ATOM     31  C   UNL     1      96.898 106.348 100.593  1.00  0.00     0.000 A 
ENDBRANCH  25  26
ENDBRANCH   3  20
TORSDOF 5
ENDMDL
MODEL 3
REMARK VINA RESULT:      -6.6      2.535     10.866
REMARK SMILES O=C(NCc1ccccc1)c1ccc(-c2ccc(-c3ccccc3)cc2)[nH]c1=O
REMARK SMILES IDX 29 1 27 2 14 3 11 4 13 5 28 6 12 7 2 9 1 10 3 11 4 13 5 14
REMARK SMILES IDX 6 15 10 16 7 17 9 18 8 19 15 20 16 21 26 22 17 23 25 24
REMARK SMILES IDX 18 25 19 26 20 27 24 28 21 29 23 30 22 31
REMARK H PARENT 27 8 3 12
ROOT
ATOM      1  O   UNL     1      99.822 106.188 108.230  1.00  0.00    -0.269 OA
ATOM      2  N   UNL     1      98.344 107.325 109.582  1.00  0.00    -0.321 N 
ATOM      3  C   UNL     1      97.121 107.933 109.784  1.00  0.00     0.048 A 
ATOM      4  C   UNL     1      97.717 106.763 107.295  1.00  0.00     0.104 A 
ATOM      5  C   UNL     1      96.220 107.958 108.787  1.00  0.00     0.028 A 
ATOM      6  C   UNL     1      98.729 106.724 108.394  1.00  0.00     0.261 A 
ATOM      7  C   UNL     1      96.535 107.357 107.512  1.00  0.00     0.022 A 
ATOM      8  H   UNL     1      99.005 107.322 110.355  1.00  0.00     0.170 HD
ENDROOT
BRANCH   4   9
ATOM      9  C   UNL     1      97.954 106.178 105.973  1.00  0.00     0.257 C 
ATOM     10  O   UNL     1      98.895 106.555 105.274  1.00  0.00    -0.269 OA
ATOM     11  N   UNL     1      97.028 105.206 105.637  1.00  0.00    -0.348 N 
ATOM     12  H   UNL     1      96.278 104.975 106.282  1.00  0.00     0.164 HD
BRANCH  11  13
ATOM     13  C   UNL     1      97.050 104.485 104.384  1.00  0.00     0.152 C 
BRANCH  13  14
ATOM     14  C   UNL     1      96.850 105.396 103.207  1.00  0.00    -0.029 A 
ATOM     15  C   UNL     1      95.642 106.076 103.049  1.00  0.00     0.005 A 
ATOM     16  C   UNL     1      97.871 105.563 102.273  1.00  0.00     0.005 A 
ATOM     17  C   UNL     1      95.456 106.921 101.956  1.00  0.00     0.000 A 
ATOM     18  C   UNL     1      97.686 106.409 101.180  1.00  0.00     0.000 A 
ATOM     19  C   UNL     1      96.478 107.089 101.021  1.00  0.00     0.000 A 
ENDBRANCH  13  14
ENDBRANCH  11  13
ENDBRANCH   4   9
BRANCH   3  20
ATOM     20  C   UNL     1      96.839 108.526 111.104  1.00  0.00    -0.002 A 
ATOM     21  C   UNL     1      97.268 107.881 112.265  1.00  0.00     0.011 A 
ATOM     22  C   UNL     1      96.145 109.733 111.193  1.00  0.00     0.011 A 
ATOM     23  C   UNL     1      97.004 108.443 113.514  1.00  0.00     0.009 A 
ATOM     24  C   UNL     1      95.880 110.295 112.443  1.00  0.00     0.009 A 
ATOM     25  C   UNL     1      96.309 109.649 113.602  1.00  0.00    -0.018 A 
BRANCH  25  26
ATOM     26  C   UNL     1      96.037 110.233 114.898  1.00  0.00    -0.018 A 
ATOM     27  C   UNL     1      96.029 109.429 116.037  1.00  0.00     0.009 A 
ATOM     28  C   UNL     1      95.783 111.600 115.008  1.00  0.00     0.009 A 
ATOM     29  C   UNL     1      95.766 109.991 117.286  1.00  0.00     0.001 A 
ATOM     30  C   UNL     1      95.520 112.163 116.257  1.00  0.00     0.001 A 
ATOM     31  C   UNL     1      95.512 111.358 117.396  1.00  0.00     0.000 A 
ENDBRANCH  25  26
ENDBRANCH   3  20
TORSDOF 5
ENDMDL
MODEL 4
REMARK VINA RESULT:      -6.3     11.523     12.378
REMARK SMILES O=C(NCc1ccccc1)c1ccc(-c2ccc(-c3ccccc3)cc2)[nH]c1=O
REMARK SMILES IDX 29 1 27 2 14 3 11 4 13 5 28 6 12 7 2 9 1 10 3 11 4 13 5 14
REMARK SMILES IDX 6 15 10 16 7 17 9 18 8 19 15 20 16 21 26 22 17 23 25 24
REMARK SMILES IDX 18 25 19 26 20 27 24 28 21 29 23 30 22 31
REMARK H PARENT 27 8 3 12
ROOT
ATOM      1  O   UNL     1      95.785  96.407 110.710  1.00  0.00    -0.269 OA
ATOM      2  N   UNL     1      97.525  95.676 109.389  1.00  0.00    -0.321 N 
ATOM      3  C   UNL     1      98.864  95.391 109.212  1.00  0.00     0.048 A 
ATOM      4  C   UNL     1      97.947  96.360 111.691  1.00  0.00     0.104 A 
ATOM      5  C   UNL     1      99.722  95.577 110.231  1.00  0.00     0.028 A 
ATOM      6  C   UNL     1      96.979  96.157 110.569  1.00  0.00     0.261 A 
ATOM      7  C   UNL     1      99.243  96.076 111.498  1.00  0.00     0.022 A 
ATOM      8  H   UNL     1      96.900  95.525 108.601  1.00  0.00     0.170 HD
ENDROOT
BRANCH   4   9
ATOM      9  C   UNL     1      97.546  96.862 113.007  1.00  0.00     0.257 C 
ATOM     10  O   UNL     1      98.015  96.379 114.039  1.00  0.00    -0.269 OA
ATOM     11  N   UNL     1      96.622  97.889 112.936  1.00  0.00    -0.348 N 
ATOM     12  H   UNL     1      96.288  98.209 112.032  1.00  0.00     0.164 HD
BRANCH  11  13
ATOM     13  C   UNL     1      96.073  98.548 114.100  1.00  0.00     0.152 C 
BRANCH  13  14
ATOM     14  C   UNL     1      96.721  99.880 114.350  1.00  0.00    -0.029 A 
ATOM     15  C   UNL     1      97.573 100.046 115.442  1.00  0.00     0.005 A 
ATOM     16  C   UNL     1      96.472 100.949 113.491  1.00  0.00     0.005 A 
ATOM     17  C   UNL     1      98.174 101.283 115.675  1.00  0.00     0.000 A 
ATOM     18  C   UNL     1      97.074 102.185 113.723  1.00  0.00     0.000 A 
ATOM     19  C   UNL     1      97.925 102.352 114.816  1.00  0.00     0.000 A 
ENDBRANCH  13  14
ENDBRANCH  11  13
ENDBRANCH   4   9
BRANCH   3  20
ATOM     20  C   UNL     1      99.308  94.875 107.904  1.00  0.00    -0.002 A 
ATOM     21  C   UNL     1     100.286  93.882 107.841  1.00  0.00     0.011 A 
ATOM     22  C   UNL     1      98.747  95.377 106.729  1.00  0.00     0.011 A 
ATOM     23  C   UNL     1     100.704  93.391 106.605  1.00  0.00     0.009 A 
ATOM     24  C   UNL     1      99.166  94.887 105.492  1.00  0.00     0.009 A 
ATOM     25  C   UNL     1     100.144  93.894 105.430  1.00  0.00    -0.018 A 
BRANCH  25  26
ATOM     26  C   UNL     1     100.575  93.383 104.147  1.00  0.00    -0.018 A 
ATOM     27  C   UNL     1     101.824  92.775 104.023  1.00  0.00     0.009 A 
ATOM     28  C   UNL     1      99.743  93.499 103.034  1.00  0.00     0.009 A 
ATOM     29  C   UNL     1     102.241  92.283 102.787  1.00  0.00     0.001 A 
ATOM     30  C   UNL     1     100.159  93.007 101.797  1.00  0.00     0.001 A 
ATOM     31  C   UNL     1     101.409  92.398 101.674  1.00  0.00     0.000 A 
ENDBRANCH  25  26
ENDBRANCH   3  20
TORSDOF 5
ENDMDL
MODEL 5
REMARK VINA RESULT:      -6.3     13.465     14.512
REMARK SMILES O=C(NCc1ccccc1)c1ccc(-c2ccc(-c3ccccc3)cc2)[nH]c1=O
REMARK SMILES IDX 29 1 27 2 14 3 11 4 13 5 28 6 12 7 2 9 1 10 3 11 4 13 5 14
REMARK SMILES IDX 6 15 10 16 7 17 9 18 8 19 15 20 16 21 26 22 17 23 25 24
REMARK SMILES IDX 18 25 19 26 20 27 24 28 21 29 23 30 22 31
REMARK H PARENT 27 8 3 12
ROOT
ATOM      1  O   UNL     1     100.446  92.332 110.019  1.00  0.00    -0.269 OA
ATOM      2  N   UNL     1     100.355  93.074 107.839  1.00  0.00    -0.321 N 
ATOM      3  C   UNL     1     100.181  94.089 106.920  1.00  0.00     0.048 A 
ATOM      4  C   UNL     1     100.012  94.641 109.674  1.00  0.00     0.104 A 
ATOM      5  C   UNL     1      99.933  95.338 107.350  1.00  0.00     0.028 A 
ATOM      6  C   UNL     1     100.290  93.247 109.213  1.00  0.00     0.261 A 
ATOM      7  C   UNL     1      99.846  95.612 108.765  1.00  0.00     0.022 A 
ATOM      8  H   UNL     1     100.542  92.139 107.484  1.00  0.00     0.170 HD
ENDROOT
BRANCH   4   9
ATOM      9  C   UNL     1      99.907  95.006 111.089  1.00  0.00     0.257 C 
ATOM     10  O   UNL     1      98.874  94.790 111.724  1.00  0.00    -0.269 OA
ATOM     11  N   UNL     1     101.058  95.595 111.582  1.00  0.00    -0.348 N 
ATOM     12  H   UNL     1     101.856  95.740 110.972  1.00  0.00     0.164 HD
BRANCH  11  13
ATOM     13  C   UNL     1     101.199  96.043 112.950  1.00  0.00     0.152 C 
BRANCH  13  14
ATOM     14  C   UNL     1     102.634  96.297 113.313  1.00  0.00    -0.029 A 
ATOM     15  C   UNL     1     103.422  97.121 112.510  1.00  0.00     0.005 A 
ATOM     16  C   UNL     1     103.178  95.710 114.455  1.00  0.00     0.005 A 
ATOM     17  C   UNL     1     104.755  97.356 112.847  1.00  0.00     0.000 A 
ATOM     18  C   UNL     1     104.511  95.945 114.793  1.00  0.00     0.000 A 
ATOM     19  C   UNL     1     105.299  96.768 113.989  1.00  0.00     0.000 A 
ENDBRANCH  13  14
ENDBRANCH  11  13
ENDBRANCH   4   9
BRANCH   3  20
ATOM     20  C   UNL     1     100.287  93.765 105.485  1.00  0.00    -0.002 A 
ATOM     21  C   UNL     1     101.414  93.100 105.002  1.00  0.00     0.011 A 
ATOM     22  C   UNL     1      99.260  94.121 104.611  1.00  0.00     0.011 A 
ATOM     23  C   UNL     1     101.515  92.791 103.646  1.00  0.00     0.009 A 
ATOM     24  C   UNL     1      99.360  93.813 103.254  1.00  0.00     0.009 A 
ATOM     25  C   UNL     1     100.487  93.149 102.772  1.00  0.00    -0.018 A 
BRANCH  25  26
ATOM     26  C   UNL     1     100.590  92.826 101.365  1.00  0.00    -0.018 A 
ATOM     27  C   UNL     1     101.813  92.421 100.830  1.00  0.00     0.009 A 
ATOM     28  C   UNL     1      99.467  92.921 100.543  1.00  0.00     0.009 A 
ATOM     29  C   UNL     1     101.913  92.111  99.475  1.00  0.00     0.001 A 
ATOM     30  C   UNL     1      99.567  92.610  99.187  1.00  0.00     0.001 A 
ATOM     31  C   UNL     1     100.790  92.205  98.653  1.00  0.00     0.000 A 
ENDBRANCH  25  26
ENDBRANCH   3  20
TORSDOF 5
ENDMDL
MODEL 6
REMARK VINA RESULT:      -6.2     13.534     14.556
REMARK SMILES O=C(NCc1ccccc1)c1ccc(-c2ccc(-c3ccccc3)cc2)[nH]c1=O
REMARK SMILES IDX 29 1 27 2 14 3 11 4 13 5 28 6 12 7 2 9 1 10 3 11 4 13 5 14
REMARK SMILES IDX 6 15 10 16 7 17 9 18 8 19 15 20 16 21 26 22 17 23 25 24
REMARK SMILES IDX 18 25 19 26 20 27 24 28 21 29 23 30 22 31
REMARK H PARENT 27 8 3 12
ROOT
ATOM      1  O   UNL     1     100.477  92.336 110.006  1.00  0.00    -0.269 OA
ATOM      2  N   UNL     1     100.358  93.067 107.824  1.00  0.00    -0.321 N 
ATOM      3  C   UNL     1     100.148  94.073 106.902  1.00  0.00     0.048 A 
ATOM      4  C   UNL     1      99.966  94.628 109.655  1.00  0.00     0.104 A 
ATOM      5  C   UNL     1      99.861  95.315 107.329  1.00  0.00     0.028 A 
ATOM      6  C   UNL     1     100.289  93.242 109.197  1.00  0.00     0.261 A 
ATOM      7  C   UNL     1      99.767  95.591 108.743  1.00  0.00     0.022 A 
ATOM      8  H   UNL     1     100.574  92.138 107.471  1.00  0.00     0.170 HD
ENDROOT
BRANCH   4   9
ATOM      9  C   UNL     1      99.852  94.994 111.069  1.00  0.00     0.257 C 
ATOM     10  O   UNL     1      98.749  95.135 111.599  1.00  0.00    -0.269 OA
ATOM     11  N   UNL     1     101.080  95.153 111.687  1.00  0.00    -0.348 N 
ATOM     12  H   UNL     1     101.936  95.025 111.157  1.00  0.00     0.164 HD
BRANCH  11  13
ATOM     13  C   UNL     1     101.229  95.514 113.079  1.00  0.00     0.152 C 
BRANCH  13  14
ATOM     14  C   UNL     1     102.643  95.895 113.414  1.00  0.00    -0.029 A 
ATOM     15  C   UNL     1     103.337  95.199 114.403  1.00  0.00     0.005 A 
ATOM     16  C   UNL     1     103.261  96.943 112.734  1.00  0.00     0.005 A 
ATOM     17  C   UNL     1     104.650  95.553 114.714  1.00  0.00     0.000 A 
ATOM     18  C   UNL     1     104.574  97.297 113.044  1.00  0.00     0.000 A 
ATOM     19  C   UNL     1     105.269  96.601 114.034  1.00  0.00     0.000 A 
ENDBRANCH  13  14
ENDBRANCH  11  13
ENDBRANCH   4   9
BRANCH   3  20
ATOM     20  C   UNL     1     100.263  93.749 105.468  1.00  0.00    -0.002 A 
ATOM     21  C   UNL     1      99.232  94.089 104.591  1.00  0.00     0.011 A 
ATOM     22  C   UNL     1     101.403  93.105 104.987  1.00  0.00     0.011 A 
ATOM     23  C   UNL     1      99.341  93.785 103.234  1.00  0.00     0.009 A 
ATOM     24  C   UNL     1     101.512  92.800 103.630  1.00  0.00     0.009 A 
ATOM     25  C   UNL     1     100.481  93.140 102.755  1.00  0.00    -0.018 A 
BRANCH  25  26
ATOM     26  C   UNL     1     100.595  92.826 101.346  1.00  0.00    -0.018 A 
ATOM     27  C   UNL     1     101.828  92.450 100.814  1.00  0.00     0.009 A 
ATOM     28  C   UNL     1      99.473  92.901 100.521  1.00  0.00     0.009 A 
ATOM     29  C   UNL     1     101.939  92.148  99.457  1.00  0.00     0.001 A 
ATOM     30  C   UNL     1      99.584  92.599  99.164  1.00  0.00     0.001 A 
ATOM     31  C   UNL     1     100.817  92.223  98.632  1.00  0.00     0.000 A 
ENDBRANCH  25  26
ENDBRANCH   3  20
TORSDOF 5
ENDMDL
MODEL 7
REMARK VINA RESULT:      -6.1     14.369     15.543
REMARK SMILES O=C(NCc1ccccc1)c1ccc(-c2ccc(-c3ccccc3)cc2)[nH]c1=O
REMARK SMILES IDX 29 1 27 2 14 3 11 4 13 5 28 6 12 7 2 9 1 10 3 11 4 13 5 14
REMARK SMILES IDX 6 15 10 16 7 17 9 18 8 19 15 20 16 21 26 22 17 23 25 24
REMARK SMILES IDX 18 25 19 26 20 27 24 28 21 29 23 30 22 31
REMARK H PARENT 27 8 3 12
ROOT
ATOM      1  O   UNL     1      99.893  95.674 108.543  1.00  0.00    -0.269 OA
ATOM      2  N   UNL     1     100.028  94.498 106.566  1.00  0.00    -0.321 N 
ATOM      3  C   UNL     1     100.169  93.308 105.882  1.00  0.00     0.048 A 
ATOM      4  C   UNL     1     100.172  93.321 108.696  1.00  0.00     0.104 A 
ATOM      5  C   UNL     1     100.304  92.160 106.568  1.00  0.00     0.028 A 
ATOM      6  C   UNL     1     100.018  94.606 107.948  1.00  0.00     0.261 A 
ATOM      7  C   UNL     1     100.307  92.176 108.012  1.00  0.00     0.022 A 
ATOM      8  H   UNL     1      99.927  95.351 106.020  1.00  0.00     0.170 HD
ENDROOT
BRANCH   4   9
ATOM      9  C   UNL     1     100.186  93.247 110.159  1.00  0.00     0.257 C 
ATOM     10  O   UNL     1      99.261  92.716 110.775  1.00  0.00    -0.269 OA
ATOM     11  N   UNL     1     101.312  93.824 110.719  1.00  0.00    -0.348 N 
ATOM     12  H   UNL     1     102.016  94.248 110.122  1.00  0.00     0.164 HD
BRANCH  11  13
ATOM     13  C   UNL     1     101.554  93.878 112.143  1.00  0.00     0.152 C 
BRANCH  13  14
ATOM     14  C   UNL     1     102.955  93.463 112.492  1.00  0.00    -0.029 A 
ATOM     15  C   UNL     1     103.174  92.310 113.245  1.00  0.00     0.005 A 
ATOM     16  C   UNL     1     104.037  94.230 112.061  1.00  0.00     0.005 A 
ATOM     17  C   UNL     1     104.475  91.925 113.570  1.00  0.00     0.000 A 
ATOM     18  C   UNL     1     105.338  93.845 112.384  1.00  0.00     0.000 A 
ATOM     19  C   UNL     1     105.557  92.692 113.139  1.00  0.00     0.000 A 
ENDBRANCH  13  14
ENDBRANCH  11  13
ENDBRANCH   4   9
BRANCH   3  20
ATOM     20  C   UNL     1     100.151  93.337 104.407  1.00  0.00    -0.002 A 
ATOM     21  C   UNL     1      99.179  94.079 103.736  1.00  0.00     0.011 A 
ATOM     22  C   UNL     1     101.109  92.626 103.684  1.00  0.00     0.011 A 
ATOM     23  C   UNL     1      99.163  94.110 102.342  1.00  0.00     0.009 A 
ATOM     24  C   UNL     1     101.093  92.656 102.289  1.00  0.00     0.009 A 
ATOM     25  C   UNL     1     100.120  93.397 101.619  1.00  0.00    -0.018 A 
BRANCH  25  26
ATOM     26  C   UNL     1     100.106  93.431 100.172  1.00  0.00    -0.018 A 
ATOM     27  C   UNL     1     100.625  92.361  99.445  1.00  0.00     0.009 A 
ATOM     28  C   UNL     1      99.572  94.533  99.504  1.00  0.00     0.009 A 
ATOM     29  C   UNL     1     100.612  92.392  98.051  1.00  0.00     0.001 A 
ATOM     30  C   UNL     1      99.558  94.565  98.111  1.00  0.00     0.001 A 
ATOM     31  C   UNL     1     100.078  93.494  97.383  1.00  0.00     0.000 A 
ENDBRANCH  25  26
ENDBRANCH   3  20
TORSDOF 5
ENDMDL
MODEL 8
REMARK VINA RESULT:      -6.1     14.139     15.280
REMARK SMILES O=C(NCc1ccccc1)c1ccc(-c2ccc(-c3ccccc3)cc2)[nH]c1=O
REMARK SMILES IDX 29 1 27 2 14 3 11 4 13 5 28 6 12 7 2 9 1 10 3 11 4 13 5 14
REMARK SMILES IDX 6 15 10 16 7 17 9 18 8 19 15 20 16 21 26 22 17 23 25 24
REMARK SMILES IDX 18 25 19 26 20 27 24 28 21 29 23 30 22 31
REMARK H PARENT 27 8 3 12
ROOT
ATOM      1  O   UNL     1      99.952  95.818 108.911  1.00  0.00    -0.269 OA
ATOM      2  N   UNL     1     100.182  94.487 107.044  1.00  0.00    -0.321 N 
ATOM      3  C   UNL     1     100.346  93.245 106.465  1.00  0.00     0.048 A 
ATOM      4  C   UNL     1     100.192  93.482 109.265  1.00  0.00     0.104 A 
ATOM      5  C   UNL     1     100.428  92.154 107.247  1.00  0.00     0.028 A 
ATOM      6  C   UNL     1     100.096  94.705 108.410  1.00  0.00     0.261 A 
ATOM      7  C   UNL     1     100.350  92.285 108.682  1.00  0.00     0.022 A 
ATOM      8  H   UNL     1     100.123  95.294 106.428  1.00  0.00     0.170 HD
ENDROOT
BRANCH   4   9
ATOM      9  C   UNL     1     100.123  93.525 110.728  1.00  0.00     0.257 C 
ATOM     10  O   UNL     1      99.126  93.118 111.326  1.00  0.00    -0.269 OA
ATOM     11  N   UNL     1     101.261  94.056 111.307  1.00  0.00    -0.348 N 
ATOM     12  H   UNL     1     102.027  94.375 110.723  1.00  0.00     0.164 HD
BRANCH  11  13
ATOM     13  C   UNL     1     101.432  94.205 112.736  1.00  0.00     0.152 C 
BRANCH  13  14
ATOM     14  C   UNL     1     102.866  94.451 113.109  1.00  0.00    -0.029 A 
ATOM     15  C   UNL     1     103.177  95.024 114.342  1.00  0.00     0.005 A 
ATOM     16  C   UNL     1     103.885  94.105 112.223  1.00  0.00     0.005 A 
ATOM     17  C   UNL     1     104.509  95.253 114.688  1.00  0.00     0.000 A 
ATOM     18  C   UNL     1     105.217  94.333 112.569  1.00  0.00     0.000 A 
ATOM     19  C   UNL     1     105.529  94.907 113.802  1.00  0.00     0.000 A 
ENDBRANCH  13  14
ENDBRANCH  11  13
ENDBRANCH   4   9
BRANCH   3  20
ATOM     20  C   UNL     1     100.412  93.156 104.994  1.00  0.00    -0.002 A 
ATOM     21  C   UNL     1      99.322  93.561 104.222  1.00  0.00     0.011 A 
ATOM     22  C   UNL     1     101.564  92.671 104.375  1.00  0.00     0.011 A 
ATOM     23  C   UNL     1      99.384  93.481 102.831  1.00  0.00     0.009 A 
ATOM     24  C   UNL     1     101.626  92.590 102.984  1.00  0.00     0.009 A 
ATOM     25  C   UNL     1     100.536  92.994 102.212  1.00  0.00    -0.018 A 
BRANCH  25  26
ATOM     26  C   UNL     1     100.602  92.913 100.769  1.00  0.00    -0.018 A 
ATOM     27  C   UNL     1      99.801  93.744  99.987  1.00  0.00     0.009 A 
ATOM     28  C   UNL     1     101.467  92.004 100.160  1.00  0.00     0.009 A 
ATOM     29  C   UNL     1      99.863  93.666  98.596  1.00  0.00     0.001 A 
ATOM     30  C   UNL     1     101.530  91.925  98.769  1.00  0.00     0.001 A 
ATOM     31  C   UNL     1     100.727  92.756  97.987  1.00  0.00     0.000 A 
ENDBRANCH  25  26
ENDBRANCH   3  20
TORSDOF 5
ENDMDL
MODEL 9
REMARK VINA RESULT:      -6.1     11.687     15.098
REMARK SMILES O=C(NCc1ccccc1)c1ccc(-c2ccc(-c3ccccc3)cc2)[nH]c1=O
REMARK SMILES IDX 29 1 27 2 14 3 11 4 13 5 28 6 12 7 2 9 1 10 3 11 4 13 5 14
REMARK SMILES IDX 6 15 10 16 7 17 9 18 8 19 15 20 16 21 26 22 17 23 25 24
REMARK SMILES IDX 18 25 19 26 20 27 24 28 21 29 23 30 22 31
REMARK H PARENT 27 8 3 12
ROOT
ATOM      1  O   UNL     1     104.993  97.924 117.301  1.00  0.00    -0.269 OA
ATOM      2  N   UNL     1     102.934  98.913 116.995  1.00  0.00    -0.321 N 
ATOM      3  C   UNL     1     101.585  98.822 116.718  1.00  0.00     0.048 A 
ATOM      4  C   UNL     1     103.165  96.494 116.797  1.00  0.00     0.104 A 
ATOM      5  C   UNL     1     101.034  97.617 116.491  1.00  0.00     0.028 A 
ATOM      6  C   UNL     1     103.793  97.827 117.054  1.00  0.00     0.261 A 
ATOM      7  C   UNL     1     101.852  96.428 116.531  1.00  0.00     0.022 A 
ATOM      8  H   UNL     1     103.323  99.838 117.163  1.00  0.00     0.170 HD
ENDROOT
BRANCH   4   9
ATOM      9  C   UNL     1     103.921  95.240 116.818  1.00  0.00     0.257 C 
ATOM     10  O   UNL     1     103.526  94.274 117.473  1.00  0.00    -0.269 OA
ATOM     11  N   UNL     1     105.071  95.289 116.050  1.00  0.00    -0.348 N 
ATOM     12  H   UNL     1     105.316  96.141 115.556  1.00  0.00     0.164 HD
BRANCH  11  13
ATOM     13  C   UNL     1     105.985  94.176 115.913  1.00  0.00     0.152 C 
BRANCH  13  14
ATOM     14  C   UNL     1     106.479  94.024 114.503  1.00  0.00    -0.029 A 
ATOM     15  C   UNL     1     107.730  93.458 114.260  1.00  0.00     0.005 A 
ATOM     16  C   UNL     1     105.686  94.448 113.438  1.00  0.00     0.005 A 
ATOM     17  C   UNL     1     108.189  93.317 112.951  1.00  0.00     0.000 A 
ATOM     18  C   UNL     1     106.144  94.306 112.128  1.00  0.00     0.000 A 
ATOM     19  C   UNL     1     107.396  93.741 111.884  1.00  0.00     0.000 A 
ENDBRANCH  13  14
ENDBRANCH  11  13
ENDBRANCH   4   9
BRANCH   3  20
ATOM     20  C   UNL     1     100.785 100.061 116.696  1.00  0.00    -0.002 A 
ATOM     21  C   UNL     1     101.368 101.274 117.064  1.00  0.00     0.011 A 
ATOM     22  C   UNL     1      99.447 100.021 116.305  1.00  0.00     0.011 A 
ATOM     23  C   UNL     1     100.614 102.447 117.041  1.00  0.00     0.009 A 
ATOM     24  C   UNL     1      98.692 101.193 116.282  1.00  0.00     0.009 A 
ATOM     25  C   UNL     1      99.275 102.406 116.650  1.00  0.00    -0.018 A 
BRANCH  25  26
ATOM     26  C   UNL     1      98.493 103.623 116.624  1.00  0.00    -0.018 A 
ATOM     27  C   UNL     1      97.329 103.720 117.386  1.00  0.00     0.009 A 
ATOM     28  C   UNL     1      98.902 104.699 115.837  1.00  0.00     0.009 A 
ATOM     29  C   UNL     1      96.574 104.892 117.361  1.00  0.00     0.001 A 
ATOM     30  C   UNL     1      98.147 105.871 115.811  1.00  0.00     0.001 A 
ATOM     31  C   UNL     1      96.983 105.968 116.573  1.00  0.00     0.000 A 
ENDBRANCH  25  26
ENDBRANCH   3  20
TORSDOF 5
ENDMDL
MODEL 10
REMARK VINA RESULT:      -6.1     11.689     15.130
REMARK SMILES O=C(NCc1ccccc1)c1ccc(-c2ccc(-c3ccccc3)cc2)[nH]c1=O
REMARK SMILES IDX 29 1 27 2 14 3 11 4 13 5 28 6 12 7 2 9 1 10 3 11 4 13 5 14
REMARK SMILES IDX 6 15 10 16 7 17 9 18 8 19 15 20 16 21 26 22 17 23 25 24
REMARK SMILES IDX 18 25 19 26 20 27 24 28 21 29 23 30 22 31
REMARK H PARENT 27 8 3 12
ROOT
ATOM      1  O   UNL     1     105.063  97.967 117.364  1.00  0.00    -0.269 OA
ATOM      2  N   UNL     1     102.998  98.939 117.044  1.00  0.00    -0.321 N 
ATOM      3  C   UNL     1     101.655  98.839 116.743  1.00  0.00     0.048 A 
ATOM      4  C   UNL     1     103.261  96.528 116.797  1.00  0.00     0.104 A 
ATOM      5  C   UNL     1     101.122  97.633 116.480  1.00  0.00     0.028 A 
ATOM      6  C   UNL     1     103.868  97.861 117.095  1.00  0.00     0.261 A 
ATOM      7  C   UNL     1     101.954  96.452 116.508  1.00  0.00     0.022 A 
ATOM      8  H   UNL     1     103.373  99.864 117.239  1.00  0.00     0.170 HD
ENDROOT
BRANCH   4   9
ATOM      9  C   UNL     1     104.031  95.282 116.804  1.00  0.00     0.257 C 
ATOM     10  O   UNL     1     103.665  94.315 117.473  1.00  0.00    -0.269 OA
ATOM     11  N   UNL     1     105.160  95.340 116.006  1.00  0.00    -0.348 N 
ATOM     12  H   UNL     1     105.381  96.192 115.501  1.00  0.00     0.164 HD
BRANCH  11  13
ATOM     13  C   UNL     1     106.081  94.237 115.849  1.00  0.00     0.152 C 
BRANCH  13  14
ATOM     14  C   UNL     1     106.497  94.049 114.418  1.00  0.00    -0.029 A 
ATOM     15  C   UNL     1     105.627  94.405 113.387  1.00  0.00     0.005 A 
ATOM     16  C   UNL     1     107.752  93.520 114.120  1.00  0.00     0.005 A 
ATOM     17  C   UNL     1     106.013  94.231 112.058  1.00  0.00     0.000 A 
ATOM     18  C   UNL     1     108.138  93.346 112.792  1.00  0.00     0.000 A 
ATOM     19  C   UNL     1     107.268  93.702 111.760  1.00  0.00     0.000 A 
ENDBRANCH  13  14
ENDBRANCH  11  13
ENDBRANCH   4   9
BRANCH   3  20
ATOM     20  C   UNL     1     100.841 100.068 116.734  1.00  0.00    -0.002 A 
ATOM     21  C   UNL     1      99.491 100.009 116.390  1.00  0.00     0.011 A 
ATOM     22  C   UNL     1     101.422 101.291 117.073  1.00  0.00     0.011 A 
ATOM     23  C   UNL     1      98.720 101.172 116.385  1.00  0.00     0.009 A 
ATOM     24  C   UNL     1     100.651 102.454 117.067  1.00  0.00     0.009 A 
ATOM     25  C   UNL     1      99.301 102.394 116.723  1.00  0.00    -0.018 A 
BRANCH  25  26
ATOM     26  C   UNL     1      98.501 103.600 116.719  1.00  0.00    -0.018 A 
ATOM     27  C   UNL     1      98.902 104.700 115.963  1.00  0.00     0.009 A 
ATOM     28  C   UNL     1      97.329 103.663 117.473  1.00  0.00     0.009 A 
ATOM     29  C   UNL     1      98.132 105.863 115.959  1.00  0.00     0.001 A 
ATOM     30  C   UNL     1      96.559 104.825 117.470  1.00  0.00     0.001 A 
ATOM     31  C   UNL     1      96.960 105.925 116.713  1.00  0.00     0.000 A 
ENDBRANCH  25  26
ENDBRANCH   3  20
TORSDOF 5
ENDMDL
MODEL 11
REMARK VINA RESULT:      -6.0     11.143     13.380
REMARK SMILES O=C(NCc1ccccc1)c1ccc(-c2ccc(-c3ccccc3)cc2)[nH]c1=O
REMARK SMILES IDX 29 1 27 2 14 3 11 4 13 5 28 6 12 7 2 9 1 10 3 11 4 13 5 14
REMARK SMILES IDX 6 15 10 16 7 17 9 18 8 19 15 20 16 21 26 22 17 23 25 24
REMARK SMILES IDX 18 25 19 26 20 27 24 28 21 29 23 30 22 31
REMARK H PARENT 27 8 3 12
ROOT
ATOM      1  O   UNL     1     100.763 100.754 117.475  1.00  0.00    -0.269 OA
ATOM      2  N   UNL     1     101.583  98.987 116.245  1.00  0.00    -0.321 N 
ATOM      3  C   UNL     1     101.389  97.935 115.373  1.00  0.00     0.048 A 
ATOM      4  C   UNL     1      99.206  99.523 116.171  1.00  0.00     0.104 A 
ATOM      5  C   UNL     1     100.154  97.679 114.907  1.00  0.00     0.028 A 
ATOM      6  C   UNL     1     100.574  99.822 116.696  1.00  0.00     0.261 A 
ATOM      7  C   UNL     1      99.039  98.497 115.324  1.00  0.00     0.022 A 
ATOM      8  H   UNL     1     102.528  99.156 116.580  1.00  0.00     0.170 HD
ENDROOT
BRANCH   4   9
ATOM      9  C   UNL     1      98.022 100.301 116.542  1.00  0.00     0.257 C 
ATOM     10  O   UNL     1      97.090  99.782 117.157  1.00  0.00    -0.269 OA
ATOM     11  N   UNL     1      98.090 101.620 116.127  1.00  0.00    -0.348 N 
ATOM     12  H   UNL     1      98.901 101.949 115.613  1.00  0.00     0.164 HD
BRANCH  11  13
ATOM     13  C   UNL     1      97.043 102.586 116.373  1.00  0.00     0.152 C 
BRANCH  13  14
ATOM     14  C   UNL     1      97.284 103.875 115.640  1.00  0.00    -0.029 A 
ATOM     15  C   UNL     1      96.739 104.068 114.371  1.00  0.00     0.005 A 
ATOM     16  C   UNL     1      98.051 104.879 116.229  1.00  0.00     0.005 A 
ATOM     17  C   UNL     1      96.963 105.264 113.690  1.00  0.00     0.000 A 
ATOM     18  C   UNL     1      98.275 106.076 115.550  1.00  0.00     0.000 A 
ATOM     19  C   UNL     1      97.731 106.269 114.280  1.00  0.00     0.000 A 
ENDBRANCH  13  14
ENDBRANCH  11  13
ENDBRANCH   4   9
BRANCH   3  20
ATOM     20  C   UNL     1     102.556  97.131 114.967  1.00  0.00    -0.002 A 
ATOM     21  C   UNL     1     102.585  96.527 113.710  1.00  0.00     0.011 A 
ATOM     22  C   UNL     1     103.635  96.978 115.839  1.00  0.00     0.011 A 
ATOM     23  C   UNL     1     103.690  95.769 113.324  1.00  0.00     0.009 A 
ATOM     24  C   UNL     1     104.740  96.219 115.454  1.00  0.00     0.009 A 
ATOM     25  C   UNL     1     104.768  95.615 114.197  1.00  0.00    -0.018 A 
BRANCH  25  26
ATOM     26  C   UNL     1     105.916  94.831 113.796  1.00  0.00    -0.018 A 
ATOM     27  C   UNL     1     106.299  94.791 112.456  1.00  0.00     0.009 A 
ATOM     28  C   UNL     1     106.639  94.114 114.750  1.00  0.00     0.009 A 
ATOM     29  C   UNL     1     107.405  94.035 112.069  1.00  0.00     0.001 A 
ATOM     30  C   UNL     1     107.745  93.358 114.363  1.00  0.00     0.001 A 
ATOM     31  C   UNL     1     108.129  93.318 113.022  1.00  0.00     0.000 A 
ENDBRANCH  25  26
ENDBRANCH   3  20
TORSDOF 5
ENDMDL
MODEL 12
REMARK VINA RESULT:      -6.0     13.932     14.817
REMARK SMILES O=C(NCc1ccccc1)c1ccc(-c2ccc(-c3ccccc3)cc2)[nH]c1=O
REMARK SMILES IDX 29 1 27 2 14 3 11 4 13 5 28 6 12 7 2 9 1 10 3 11 4 13 5 14
REMARK SMILES IDX 6 15 10 16 7 17 9 18 8 19 15 20 16 21 26 22 17 23 25 24
REMARK SMILES IDX 18 25 19 26 20 27 24 28 21 29 23 30 22 31
REMARK H PARENT 27 8 3 12
ROOT
ATOM      1  O   UNL     1      99.955  96.050 109.471  1.00  0.00    -0.269 OA
ATOM      2  N   UNL     1      99.936  94.883 107.485  1.00  0.00    -0.321 N 
ATOM      3  C   UNL     1     100.050  93.699 106.784  1.00  0.00     0.048 A 
ATOM      4  C   UNL     1     100.330  93.708 109.584  1.00  0.00     0.104 A 
ATOM      5  C   UNL     1     100.292  92.555 107.448  1.00  0.00     0.028 A 
ATOM      6  C   UNL     1     100.059  94.988 108.862  1.00  0.00     0.261 A 
ATOM      7  C   UNL     1     100.437  92.569 108.885  1.00  0.00     0.022 A 
ATOM      8  H   UNL     1      99.752  95.731 106.956  1.00  0.00     0.170 HD
ENDROOT
BRANCH   4   9
ATOM      9  C   UNL     1     100.490  93.633 111.039  1.00  0.00     0.257 C 
ATOM     10  O   UNL     1      99.602  93.163 111.750  1.00  0.00    -0.269 OA
ATOM     11  N   UNL     1     101.703  94.136 111.476  1.00  0.00    -0.348 N 
ATOM     12  H   UNL     1     102.367  94.513 110.807  1.00  0.00     0.164 HD
BRANCH  11  13
ATOM     13  C   UNL     1     102.095  94.173 112.867  1.00  0.00     0.152 C 
BRANCH  13  14
ATOM     14  C   UNL     1     103.570  94.400 113.031  1.00  0.00    -0.029 A 
ATOM     15  C   UNL     1     104.129  94.461 114.308  1.00  0.00     0.005 A 
ATOM     16  C   UNL     1     104.381  94.550 111.907  1.00  0.00     0.005 A 
ATOM     17  C   UNL     1     105.499  94.673 114.460  1.00  0.00     0.000 A 
ATOM     18  C   UNL     1     105.751  94.761 112.059  1.00  0.00     0.000 A 
ATOM     19  C   UNL     1     106.310  94.823 113.336  1.00  0.00     0.000 A 
ENDBRANCH  13  14
ENDBRANCH  11  13
ENDBRANCH   4   9
BRANCH   3  20
ATOM     20  C   UNL     1      99.887  93.729 105.319  1.00  0.00    -0.002 A 
ATOM     21  C   UNL     1      98.889  94.518 104.745  1.00  0.00     0.011 A 
ATOM     22  C   UNL     1     100.731  92.972 104.506  1.00  0.00     0.011 A 
ATOM     23  C   UNL     1      98.736  94.550 103.359  1.00  0.00     0.009 A 
ATOM     24  C   UNL     1     100.577  93.003 103.120  1.00  0.00     0.009 A 
ATOM     25  C   UNL     1      99.580  93.792 102.547  1.00  0.00    -0.018 A 
BRANCH  25  26
ATOM     26  C   UNL     1      99.422  93.826 101.109  1.00  0.00    -0.018 A 
ATOM     27  C   UNL     1     100.274  93.080 100.296  1.00  0.00     0.009 A 
ATOM     28  C   UNL     1      98.418  94.606 100.535  1.00  0.00     0.009 A 
ATOM     29  C   UNL     1     100.123  93.113  98.910  1.00  0.00     0.001 A 
ATOM     30  C   UNL     1      98.266  94.640  99.150  1.00  0.00     0.001 A 
ATOM     31  C   UNL     1      99.119  93.893  98.336  1.00  0.00     0.000 A 
ENDBRANCH  25  26
ENDBRANCH   3  20
TORSDOF 5
ENDMDL
MODEL 13
REMARK VINA RESULT:      -6.0     11.467     13.669
REMARK SMILES O=C(NCc1ccccc1)c1ccc(-c2ccc(-c3ccccc3)cc2)[nH]c1=O
REMARK SMILES IDX 29 1 27 2 14 3 11 4 13 5 28 6 12 7 2 9 1 10 3 11 4 13 5 14
REMARK SMILES IDX 6 15 10 16 7 17 9 18 8 19 15 20 16 21 26 22 17 23 25 24
REMARK SMILES IDX 18 25 19 26 20 27 24 28 21 29 23 30 22 31
REMARK H PARENT 27 8 3 12
ROOT
ATOM      1  O   UNL     1      97.664  97.443 113.957  1.00  0.00    -0.269 OA
ATOM      2  N   UNL     1      99.918  97.150 114.333  1.00  0.00    -0.321 N 
ATOM      3  C   UNL     1     101.083  97.492 114.992  1.00  0.00     0.048 A 
ATOM      4  C   UNL     1      98.685  98.842 115.582  1.00  0.00     0.104 A 
ATOM      5  C   UNL     1     101.060  98.468 115.916  1.00  0.00     0.028 A 
ATOM      6  C   UNL     1      98.692  97.757 114.553  1.00  0.00     0.261 A 
ATOM      7  C   UNL     1      99.826  99.157 116.211  1.00  0.00     0.022 A 
ATOM      8  H   UNL     1      99.966  96.408 113.639  1.00  0.00     0.170 HD
ENDROOT
BRANCH   4   9
ATOM      9  C   UNL     1      97.478  99.591 115.941  1.00  0.00     0.257 C 
ATOM     10  O   UNL     1      96.770  99.236 116.884  1.00  0.00    -0.269 OA
ATOM     11  N   UNL     1      97.257 100.684 115.122  1.00  0.00    -0.348 N 
ATOM     12  H   UNL     1      97.897 100.886 114.361  1.00  0.00     0.164 HD
BRANCH  11  13
ATOM     13  C   UNL     1      96.130 101.578 115.275  1.00  0.00     0.152 C 
BRANCH  13  14
ATOM     14  C   UNL     1      96.402 102.932 114.687  1.00  0.00    -0.029 A 
ATOM     15  C   UNL     1      95.460 103.952 114.819  1.00  0.00     0.005 A 
ATOM     16  C   UNL     1      97.597 103.171 114.009  1.00  0.00     0.005 A 
ATOM     17  C   UNL     1      95.712 105.210 114.271  1.00  0.00     0.000 A 
ATOM     18  C   UNL     1      97.851 104.429 113.463  1.00  0.00     0.000 A 
ATOM     19  C   UNL     1      96.908 105.449 113.594  1.00  0.00     0.000 A 
ENDBRANCH  13  14
ENDBRANCH  11  13
ENDBRANCH   4   9
BRANCH   3  20
ATOM     20  C   UNL     1     102.318  96.755 114.666  1.00  0.00    -0.002 A 
ATOM     21  C   UNL     1     103.099  97.150 113.580  1.00  0.00     0.011 A 
ATOM     22  C   UNL     1     102.707  95.666 115.445  1.00  0.00     0.011 A 
ATOM     23  C   UNL     1     104.269  96.456 113.272  1.00  0.00     0.009 A 
ATOM     24  C   UNL     1     103.877  94.971 115.137  1.00  0.00     0.009 A 
ATOM     25  C   UNL     1     104.657  95.366 114.051  1.00  0.00    -0.018 A 
BRANCH  25  26
ATOM     26  C   UNL     1     105.873  94.647 113.734  1.00  0.00    -0.018 A 
ATOM     27  C   UNL     1     106.663  94.127 114.758  1.00  0.00     0.009 A 
ATOM     28  C   UNL     1     106.254  94.474 112.404  1.00  0.00     0.009 A 
ATOM     29  C   UNL     1     107.834  93.435 114.454  1.00  0.00     0.001 A 
ATOM     30  C   UNL     1     107.425  93.781 112.098  1.00  0.00     0.001 A 
ATOM     31  C   UNL     1     108.216  93.261 113.123  1.00  0.00     0.000 A 
ENDBRANCH  25  26
ENDBRANCH   3  20
TORSDOF 5
ENDMDL
MODEL 14
REMARK VINA RESULT:      -5.9     13.656     14.615
REMARK SMILES O=C(NCc1ccccc1)c1ccc(-c2ccc(-c3ccccc3)cc2)[nH]c1=O
REMARK SMILES IDX 29 1 27 2 14 3 11 4 13 5 28 6 12 7 2 9 1 10 3 11 4 13 5 14
REMARK SMILES IDX 6 15 10 16 7 17 9 18 8 19 15 20 16 21 26 22 17 23 25 24
REMARK SMILES IDX 18 25 19 26 20 27 24 28 21 29 23 30 22 31
REMARK H PARENT 27 8 3 12
ROOT
ATOM      1  O   UNL     1     100.583  96.380 110.649  1.00  0.00    -0.269 OA
ATOM      2  N   UNL     1      99.939  95.336 108.699  1.00  0.00    -0.321 N 
ATOM      3  C   UNL     1      99.761  94.190 107.950  1.00  0.00     0.048 A 
ATOM      4  C   UNL     1     100.767  94.014 110.573  1.00  0.00     0.104 A 
ATOM      5  C   UNL     1     100.068  92.994 108.483  1.00  0.00     0.028 A 
ATOM      6  C   UNL     1     100.428  95.351 109.995  1.00  0.00     0.261 A 
ATOM      7  C   UNL     1     100.585  92.914 109.829  1.00  0.00     0.022 A 
ATOM      8  H   UNL     1      99.698  96.225 108.269  1.00  0.00     0.170 HD
ENDROOT
BRANCH   4   9
ATOM      9  C   UNL     1     101.296  93.842 111.927  1.00  0.00     0.257 C 
ATOM     10  O   UNL     1     100.582  93.421 112.838  1.00  0.00    -0.269 OA
ATOM     11  N   UNL     1     102.628  94.201 112.037  1.00  0.00    -0.348 N 
ATOM     12  H   UNL     1     103.129  94.550 111.225  1.00  0.00     0.164 HD
BRANCH  11  13
ATOM     13  C   UNL     1     103.375  94.122 113.273  1.00  0.00     0.152 C 
BRANCH  13  14
ATOM     14  C   UNL     1     104.851  93.989 113.031  1.00  0.00    -0.029 A 
ATOM     15  C   UNL     1     105.709  93.701 114.093  1.00  0.00     0.005 A 
ATOM     16  C   UNL     1     105.364  94.154 111.745  1.00  0.00     0.005 A 
ATOM     17  C   UNL     1     107.080  93.579 113.868  1.00  0.00     0.000 A 
ATOM     18  C   UNL     1     106.735  94.031 111.520  1.00  0.00     0.000 A 
ATOM     19  C   UNL     1     107.593  93.743 112.582  1.00  0.00     0.000 A 
ENDBRANCH  13  14
ENDBRANCH  11  13
ENDBRANCH   4   9
BRANCH   3  20
ATOM     20  C   UNL     1      99.221  94.318 106.584  1.00  0.00    -0.002 A 
ATOM     21  C   UNL     1     100.048  94.093 105.483  1.00  0.00     0.011 A 
ATOM     22  C   UNL     1      97.883  94.662 106.391  1.00  0.00     0.011 A 
ATOM     23  C   UNL     1      99.538  94.212 104.190  1.00  0.00     0.009 A 
ATOM     24  C   UNL     1      97.373  94.781 105.099  1.00  0.00     0.009 A 
ATOM     25  C   UNL     1      98.200  94.556 103.999  1.00  0.00    -0.018 A 
BRANCH  25  26
ATOM     26  C   UNL     1      97.669  94.677 102.658  1.00  0.00    -0.018 A 
ATOM     27  C   UNL     1      98.347  94.098 101.586  1.00  0.00     0.009 A 
ATOM     28  C   UNL     1      96.481  95.374 102.437  1.00  0.00     0.009 A 
ATOM     29  C   UNL     1      97.836  94.214 100.293  1.00  0.00     0.001 A 
ATOM     30  C   UNL     1      95.970  95.490 101.145  1.00  0.00     0.001 A 
ATOM     31  C   UNL     1      96.648  94.910 100.072  1.00  0.00     0.000 A 
ENDBRANCH  25  26
ENDBRANCH   3  20
TORSDOF 5
ENDMDL
MODEL 15
REMARK VINA RESULT:      -5.9     13.968     14.982
REMARK SMILES O=C(NCc1ccccc1)c1ccc(-c2ccc(-c3ccccc3)cc2)[nH]c1=O
REMARK SMILES IDX 29 1 27 2 14 3 11 4 13 5 28 6 12 7 2 9 1 10 3 11 4 13 5 14
REMARK SMILES IDX 6 15 10 16 7 17 9 18 8 19 15 20 16 21 26 22 17 23 25 24
REMARK SMILES IDX 18 25 19 26 20 27 24 28 21 29 23 30 22 31
REMARK H PARENT 27 8 3 12
ROOT
ATOM      1  O   UNL     1      99.952  96.027 109.638  1.00  0.00    -0.269 OA
ATOM      2  N   UNL     1     100.187  94.642 107.811  1.00  0.00    -0.321 N 
ATOM      3  C   UNL     1     100.323  93.380 107.268  1.00  0.00     0.048 A 
ATOM      4  C   UNL     1     100.100  93.694 110.056  1.00  0.00     0.104 A 
ATOM      5  C   UNL     1     100.345  92.308 108.078  1.00  0.00     0.028 A 
ATOM      6  C   UNL     1     100.071  94.898 109.169  1.00  0.00     0.261 A 
ATOM      7  C   UNL     1     100.232  92.478 109.507  1.00  0.00     0.022 A 
ATOM      8  H   UNL     1     100.173  95.434 107.174  1.00  0.00     0.170 HD
ENDROOT
BRANCH   4   9
ATOM      9  C   UNL     1      99.992  93.776 111.514  1.00  0.00     0.257 C 
ATOM     10  O   UNL     1      98.947  93.469 112.090  1.00  0.00    -0.269 OA
ATOM     11  N   UNL     1     101.154  94.224 112.118  1.00  0.00    -0.348 N 
ATOM     12  H   UNL     1     101.961  94.464 111.551  1.00  0.00     0.164 HD
BRANCH  11  13
ATOM     13  C   UNL     1     101.294  94.390 113.548  1.00  0.00     0.152 C 
BRANCH  13  14
ATOM     14  C   UNL     1     102.702  94.739 113.938  1.00  0.00    -0.029 A 
ATOM     15  C   UNL     1     103.773  94.277 113.172  1.00  0.00     0.005 A 
ATOM     16  C   UNL     1     102.939  95.524 115.065  1.00  0.00     0.005 A 
ATOM     17  C   UNL     1     105.080  94.599 113.534  1.00  0.00     0.000 A 
ATOM     18  C   UNL     1     104.247  95.848 115.427  1.00  0.00     0.000 A 
ATOM     19  C   UNL     1     105.317  95.385 114.662  1.00  0.00     0.000 A 
ENDBRANCH  13  14
ENDBRANCH  11  13
ENDBRANCH   4   9
BRANCH   3  20
ATOM     20  C   UNL     1     100.426  93.253 105.802  1.00  0.00    -0.002 A 
ATOM     21  C   UNL     1     101.678  93.127 105.199  1.00  0.00     0.011 A 
ATOM     22  C   UNL     1      99.272  93.255 105.019  1.00  0.00     0.011 A 
ATOM     23  C   UNL     1     101.776  93.003 103.813  1.00  0.00     0.009 A 
ATOM     24  C   UNL     1      99.370  93.133 103.633  1.00  0.00     0.009 A 
ATOM     25  C   UNL     1     100.622  93.007 103.031  1.00  0.00    -0.018 A 
BRANCH  25  26
ATOM     26  C   UNL     1     100.723  92.876 101.593  1.00  0.00    -0.018 A 
ATOM     27  C   UNL     1     101.877  92.343 101.021  1.00  0.00     0.009 A 
ATOM     28  C   UNL     1      99.666  93.283 100.779  1.00  0.00     0.009 A 
ATOM     29  C   UNL     1     101.976  92.217  99.636  1.00  0.00     0.001 A 
ATOM     30  C   UNL     1      99.764  93.158  99.393  1.00  0.00     0.001 A 
ATOM     31  C   UNL     1     100.919  92.625  98.821  1.00  0.00     0.000 A 
ENDBRANCH  25  26
ENDBRANCH   3  20
TORSDOF 5
ENDMDL
