MODEL 1
REMARK VINA RESULT:      -8.1      0.000      0.000
REMARK SMILES O=C(Oc1ccc(-c2ccccc2)cc1)[C@@H]1CC(=O)N(c2ccc(F)cc2)C1
REMARK SMILES IDX 1 1 2 2 16 3 20 4 28 5 18 6 19 7 17 8 21 9 24 10 23 11 26 12
REMARK SMILES IDX 22 13 27 14 25 15 3 16 4 17 5 18 15 19 6 20 14 21 7 22 8 23
REMARK SMILES IDX 9 24 13 25 10 26 12 27 11 28
REMARK H PARENT
ROOT
ATOM      1  O   UNL     1      97.327 109.970 110.433  1.00  0.00    -0.251 OA
ATOM      2  C   UNL     1      97.075 108.817 110.759  1.00  0.00     0.316 C 
ENDROOT
BRANCH   2   3
ATOM      3  C   UNL     1      95.986 108.430 111.719  1.00  0.00     0.129 C 
ATOM      4  N   UNL     1      96.914 107.223 113.511  1.00  0.00    -0.312 N 
ATOM      5  C   UNL     1      96.186 107.032 112.270  1.00  0.00     0.141 C 
ATOM      6  C   UNL     1      96.827 108.554 113.955  1.00  0.00     0.227 C 
ATOM      7  O   UNL     1      97.258 109.071 114.977  1.00  0.00    -0.274 OA
ATOM      8  C   UNL     1      96.002 109.323 112.948  1.00  0.00     0.117 C 
BRANCH   4   9
ATOM      9  C   UNL     1      97.550 106.141 114.192  1.00  0.00     0.044 A 
ATOM     10  C   UNL     1      98.795 104.024 115.525  1.00  0.00     0.123 A 
ATOM     11  C   UNL     1      98.213 103.815 114.275  1.00  0.00     0.041 A 
ATOM     12  C   UNL     1      98.755 105.290 116.110  1.00  0.00     0.041 A 
ATOM     13  C   UNL     1      97.592 104.872 113.609  1.00  0.00     0.029 A 
ATOM     14  C   UNL     1      98.134 106.346 115.445  1.00  0.00     0.029 A 
ATOM     15  F   UNL     1      99.392 103.009 116.163  1.00  0.00    -0.207 F 
ENDBRANCH   4   9
ENDBRANCH   2   3
BRANCH   2  16
ATOM     16  O   UNL     1      97.720 107.664 110.328  1.00  0.00    -0.426 OA
BRANCH  16  17
ATOM     17  C   UNL     1      97.606 107.463 108.950  1.00  0.00     0.130 A 
ATOM     18  C   UNL     1      96.506 107.973 108.297  1.00  0.00     0.048 A 
ATOM     19  C   UNL     1      98.597 106.763 108.298  1.00  0.00     0.048 A 
ATOM     20  C   UNL     1      96.390 107.772 106.922  1.00  0.00     0.012 A 
ATOM     21  C   UNL     1      98.482 106.563 106.923  1.00  0.00     0.012 A 
ATOM     22  C   UNL     1      97.378 107.068 106.235  1.00  0.00    -0.018 A 
BRANCH  22  23
ATOM     23  C   UNL     1      97.258 106.858 104.808  1.00  0.00    -0.018 A 
ATOM     24  C   UNL     1      98.394 106.591 104.043  1.00  0.00     0.009 A 
ATOM     25  C   UNL     1      96.005 106.921 104.198  1.00  0.00     0.009 A 
ATOM     26  C   UNL     1      98.277 106.387 102.669  1.00  0.00     0.001 A 
ATOM     27  C   UNL     1      95.888 106.716 102.822  1.00  0.00     0.001 A 
ATOM     28  C   UNL     1      97.024 106.449 102.058  1.00  0.00     0.000 A 
ENDBRANCH  22  23
ENDBRANCH  16  17
ENDBRANCH   2  16
TORSDOF 5
ENDMDL
MODEL 2
REMARK VINA RESULT:      -8.0      3.883      9.527
REMARK SMILES O=C(Oc1ccc(-c2ccccc2)cc1)[C@@H]1CC(=O)N(c2ccc(F)cc2)C1
REMARK SMILES IDX 1 1 2 2 16 3 20 4 28 5 18 6 19 7 17 8 21 9 24 10 23 11 26 12
REMARK SMILES IDX 22 13 27 14 25 15 3 16 4 17 5 18 15 19 6 20 14 21 7 22 8 23
REMARK SMILES IDX 9 24 13 25 10 26 12 27 11 28
REMARK H PARENT
ROOT
ATOM      1  O   UNL     1      96.991 109.555 107.255  1.00  0.00    -0.251 OA
ATOM      2  C   UNL     1      96.421 108.732 107.958  1.00  0.00     0.316 C 
ENDROOT
BRANCH   2   3
ATOM      3  C   UNL     1      96.535 107.245 107.779  1.00  0.00     0.129 C 
ATOM      4  N   UNL     1      97.167 106.767 105.565  1.00  0.00    -0.312 N 
ATOM      5  C   UNL     1      96.004 106.792 106.433  1.00  0.00     0.141 C 
ATOM      6  C   UNL     1      98.360 106.766 106.309  1.00  0.00     0.227 C 
ATOM      7  O   UNL     1      99.521 106.691 105.931  1.00  0.00    -0.274 OA
ATOM      8  C   UNL     1      97.990 106.807 107.774  1.00  0.00     0.117 C 
BRANCH   4   9
ATOM      9  C   UNL     1      97.052 106.674 104.145  1.00  0.00     0.044 A 
ATOM     10  C   UNL     1      96.827 106.490 101.365  1.00  0.00     0.123 A 
ATOM     11  C   UNL     1      98.087 106.497 101.964  1.00  0.00     0.041 A 
ATOM     12  C   UNL     1      95.679 106.575 102.155  1.00  0.00     0.041 A 
ATOM     13  C   UNL     1      98.199 106.589 103.351  1.00  0.00     0.029 A 
ATOM     14  C   UNL     1      95.792 106.666 103.541  1.00  0.00     0.029 A 
ATOM     15  F   UNL     1      96.719 106.401 100.034  1.00  0.00    -0.207 F 
ENDBRANCH   4   9
ENDBRANCH   2   3
BRANCH   2  16
ATOM     16  O   UNL     1      95.575 108.988 109.032  1.00  0.00    -0.426 OA
BRANCH  16  17
ATOM     17  C   UNL     1      96.123 108.598 110.256  1.00  0.00     0.130 A 
ATOM     18  C   UNL     1      95.457 107.656 111.008  1.00  0.00     0.048 A 
ATOM     19  C   UNL     1      97.307 109.171 110.665  1.00  0.00     0.048 A 
ATOM     20  C   UNL     1      96.002 107.266 112.231  1.00  0.00     0.012 A 
ATOM     21  C   UNL     1      97.852 108.781 111.888  1.00  0.00     0.012 A 
ATOM     22  C   UNL     1      97.200 107.829 112.670  1.00  0.00    -0.018 A 
BRANCH  22  23
ATOM     23  C   UNL     1      97.766 107.426 113.940  1.00  0.00    -0.018 A 
ATOM     24  C   UNL     1      98.255 108.388 114.823  1.00  0.00     0.009 A 
ATOM     25  C   UNL     1      97.819 106.074 114.281  1.00  0.00     0.009 A 
ATOM     26  C   UNL     1      98.798 107.999 116.047  1.00  0.00     0.001 A 
ATOM     27  C   UNL     1      98.362 105.685 115.506  1.00  0.00     0.001 A 
ATOM     28  C   UNL     1      98.851 106.648 116.389  1.00  0.00     0.000 A 
ENDBRANCH  22  23
ENDBRANCH  16  17
ENDBRANCH   2  16
TORSDOF 5
ENDMDL
MODEL 3
REMARK VINA RESULT:      -8.0      3.866      9.516
REMARK SMILES O=C(Oc1ccc(-c2ccccc2)cc1)[C@@H]1CC(=O)N(c2ccc(F)cc2)C1
REMARK SMILES IDX 1 1 2 2 16 3 20 4 28 5 18 6 19 7 17 8 21 9 24 10 23 11 26 12
REMARK SMILES IDX 22 13 27 14 25 15 3 16 4 17 5 18 15 19 6 20 14 21 7 22 8 23
REMARK SMILES IDX 9 24 13 25 10 26 12 27 11 28
REMARK H PARENT
ROOT
ATOM      1  O   UNL     1      96.947 109.596 107.266  1.00  0.00    -0.251 OA
ATOM      2  C   UNL     1      96.369 108.793 107.985  1.00  0.00     0.316 C 
ENDROOT
BRANCH   2   3
ATOM      3  C   UNL     1      96.443 107.301 107.815  1.00  0.00     0.129 C 
ATOM      4  N   UNL     1      97.104 106.794 105.617  1.00  0.00    -0.312 N 
ATOM      5  C   UNL     1      95.925 106.857 106.461  1.00  0.00     0.141 C 
ATOM      6  C   UNL     1      98.282 106.761 106.384  1.00  0.00     0.227 C 
ATOM      7  O   UNL     1      99.448 106.651 106.030  1.00  0.00    -0.274 OA
ATOM      8  C   UNL     1      97.884 106.822 107.841  1.00  0.00     0.117 C 
BRANCH   4   9
ATOM      9  C   UNL     1      97.015 106.696 104.195  1.00  0.00     0.044 A 
ATOM     10  C   UNL     1      96.839 106.504 101.412  1.00  0.00     0.123 A 
ATOM     11  C   UNL     1      98.088 106.503 102.035  1.00  0.00     0.041 A 
ATOM     12  C   UNL     1      95.678 106.602 102.180  1.00  0.00     0.041 A 
ATOM     13  C   UNL     1      98.176 106.599 103.423  1.00  0.00     0.029 A 
ATOM     14  C   UNL     1      95.766 106.697 103.568  1.00  0.00     0.029 A 
ATOM     15  F   UNL     1      96.756 106.411 100.079  1.00  0.00    -0.207 F 
ENDBRANCH   4   9
ENDBRANCH   2   3
BRANCH   2  16
ATOM     16  O   UNL     1      95.548 109.077 109.070  1.00  0.00    -0.426 OA
BRANCH  16  17
ATOM     17  C   UNL     1      96.092 108.654 110.286  1.00  0.00     0.130 A 
ATOM     18  C   UNL     1      97.245 109.255 110.738  1.00  0.00     0.048 A 
ATOM     19  C   UNL     1      95.456 107.651 110.983  1.00  0.00     0.048 A 
ATOM     20  C   UNL     1      97.790 108.832 111.950  1.00  0.00     0.012 A 
ATOM     21  C   UNL     1      96.000 107.228 112.195  1.00  0.00     0.012 A 
ATOM     22  C   UNL     1      97.168 107.819 112.678  1.00  0.00    -0.018 A 
BRANCH  22  23
ATOM     23  C   UNL     1      97.733 107.379 113.936  1.00  0.00    -0.018 A 
ATOM     24  C   UNL     1      97.646 106.038 114.310  1.00  0.00     0.009 A 
ATOM     25  C   UNL     1      98.369 108.297 114.772  1.00  0.00     0.009 A 
ATOM     26  C   UNL     1      98.193 105.614 115.520  1.00  0.00     0.001 A 
ATOM     27  C   UNL     1      98.917 107.873 115.984  1.00  0.00     0.001 A 
ATOM     28  C   UNL     1      98.829 106.531 116.357  1.00  0.00     0.000 A 
ENDBRANCH  22  23
ENDBRANCH  16  17
ENDBRANCH   2  16
TORSDOF 5
ENDMDL
MODEL 4
REMARK VINA RESULT:      -7.5     12.317     13.821
REMARK SMILES O=C(Oc1ccc(-c2ccccc2)cc1)[C@@H]1CC(=O)N(c2ccc(F)cc2)C1
REMARK SMILES IDX 1 1 2 2 16 3 20 4 28 5 18 6 19 7 17 8 21 9 24 10 23 11 26 12
REMARK SMILES IDX 22 13 27 14 25 15 3 16 4 17 5 18 15 19 6 20 14 21 7 22 8 23
REMARK SMILES IDX 9 24 13 25 10 26 12 27 11 28
REMARK H PARENT
ROOT
ATOM      1  O   UNL     1     100.830  96.397 110.398  1.00  0.00    -0.251 OA
ATOM      2  C   UNL     1     100.183  95.398 110.684  1.00  0.00     0.316 C 
ENDROOT
BRANCH   2   3
ATOM      3  C   UNL     1     100.424  94.558 111.907  1.00  0.00     0.129 C 
ATOM      4  N   UNL     1     102.715  94.580 112.435  1.00  0.00    -0.312 N 
ATOM      5  C   UNL     1     101.705  93.754 111.800  1.00  0.00     0.141 C 
ATOM      6  C   UNL     1     102.131  95.575 113.238  1.00  0.00     0.227 C 
ATOM      7  O   UNL     1     102.657  96.408 113.963  1.00  0.00    -0.274 OA
ATOM      8  C   UNL     1     100.629  95.429 113.134  1.00  0.00     0.117 C 
BRANCH   4   9
ATOM      9  C   UNL     1     104.110  94.317 112.291  1.00  0.00     0.044 A 
ATOM     10  C   UNL     1     106.843  93.801 112.010  1.00  0.00     0.123 A 
ATOM     11  C   UNL     1     106.318  95.027 111.599  1.00  0.00     0.041 A 
ATOM     12  C   UNL     1     106.003  92.833 112.560  1.00  0.00     0.041 A 
ATOM     13  C   UNL     1     104.955  95.284 111.739  1.00  0.00     0.029 A 
ATOM     14  C   UNL     1     104.640  93.090 112.701  1.00  0.00     0.029 A 
ATOM     15  F   UNL     1     108.153  93.555 111.875  1.00  0.00    -0.207 F 
ENDBRANCH   4   9
ENDBRANCH   2   3
BRANCH   2  16
ATOM     16  O   UNL     1      99.129  94.846 109.965  1.00  0.00    -0.426 OA
BRANCH  16  17
ATOM     17  C   UNL     1      99.490  94.495 108.661  1.00  0.00     0.130 A 
ATOM     18  C   UNL     1      99.130  95.331 107.628  1.00  0.00     0.048 A 
ATOM     19  C   UNL     1     100.192  93.327 108.460  1.00  0.00     0.048 A 
ATOM     20  C   UNL     1      99.489  94.981 106.327  1.00  0.00     0.012 A 
ATOM     21  C   UNL     1     100.551  92.977 107.159  1.00  0.00     0.012 A 
ATOM     22  C   UNL     1     100.199  93.804 106.092  1.00  0.00    -0.018 A 
BRANCH  22  23
ATOM     23  C   UNL     1     100.571  93.440 104.742  1.00  0.00    -0.018 A 
ATOM     24  C   UNL     1      99.632  93.519 103.713  1.00  0.00     0.009 A 
ATOM     25  C   UNL     1     101.871  93.012 104.469  1.00  0.00     0.009 A 
ATOM     26  C   UNL     1      99.993  93.170 102.412  1.00  0.00     0.001 A 
ATOM     27  C   UNL     1     102.231  92.663 103.167  1.00  0.00     0.001 A 
ATOM     28  C   UNL     1     101.292  92.742 102.139  1.00  0.00     0.000 A 
ENDBRANCH  22  23
ENDBRANCH  16  17
ENDBRANCH   2  16
TORSDOF 5
ENDMDL
MODEL 5
REMARK VINA RESULT:      -7.5     12.334     13.797
REMARK SMILES O=C(Oc1ccc(-c2ccccc2)cc1)[C@@H]1CC(=O)N(c2ccc(F)cc2)C1
REMARK SMILES IDX 1 1 2 2 16 3 20 4 28 5 18 6 19 7 17 8 21 9 24 10 23 11 26 12
REMARK SMILES IDX 22 13 27 14 25 15 3 16 4 17 5 18 15 19 6 20 14 21 7 22 8 23
REMARK SMILES IDX 9 24 13 25 10 26 12 27 11 28
REMARK H PARENT
ROOT
ATOM      1  O   UNL     1     100.814  96.379 110.395  1.00  0.00    -0.251 OA
ATOM      2  C   UNL     1     100.177  95.373 110.677  1.00  0.00     0.316 C 
ENDROOT
BRANCH   2   3
ATOM      3  C   UNL     1     100.427  94.530 111.895  1.00  0.00     0.129 C 
ATOM      4  N   UNL     1     102.720  94.562 112.414  1.00  0.00    -0.312 N 
ATOM      5  C   UNL     1     101.712  93.732 111.780  1.00  0.00     0.141 C 
ATOM      6  C   UNL     1     102.134  95.550 113.224  1.00  0.00     0.227 C 
ATOM      7  O   UNL     1     102.659  96.384 113.950  1.00  0.00    -0.274 OA
ATOM      8  C   UNL     1     100.634  95.397 113.125  1.00  0.00     0.117 C 
BRANCH   4   9
ATOM      9  C   UNL     1     104.117  94.306 112.263  1.00  0.00     0.044 A 
ATOM     10  C   UNL     1     106.851  93.806 111.967  1.00  0.00     0.123 A 
ATOM     11  C   UNL     1     106.026  92.849 112.559  1.00  0.00     0.041 A 
ATOM     12  C   UNL     1     106.310  95.013 111.523  1.00  0.00     0.041 A 
ATOM     13  C   UNL     1     104.662  93.098 112.707  1.00  0.00     0.029 A 
ATOM     14  C   UNL     1     104.946  95.262 111.671  1.00  0.00     0.029 A 
ATOM     15  F   UNL     1     108.160  93.566 111.825  1.00  0.00    -0.207 F 
ENDBRANCH   4   9
ENDBRANCH   2   3
BRANCH   2  16
ATOM     16  O   UNL     1      99.127  94.816 109.957  1.00  0.00    -0.426 OA
BRANCH  16  17
ATOM     17  C   UNL     1      99.489  94.473 108.651  1.00  0.00     0.130 A 
ATOM     18  C   UNL     1      99.147  95.326 107.626  1.00  0.00     0.048 A 
ATOM     19  C   UNL     1     100.172  93.296 108.441  1.00  0.00     0.048 A 
ATOM     20  C   UNL     1      99.507  94.984 106.323  1.00  0.00     0.012 A 
ATOM     21  C   UNL     1     100.532  92.954 107.138  1.00  0.00     0.012 A 
ATOM     22  C   UNL     1     100.199  93.799 106.079  1.00  0.00    -0.018 A 
BRANCH  22  23
ATOM     23  C   UNL     1     100.572  93.444 104.726  1.00  0.00    -0.018 A 
ATOM     24  C   UNL     1     101.872  93.019 104.448  1.00  0.00     0.009 A 
ATOM     25  C   UNL     1      99.630  93.523 103.701  1.00  0.00     0.009 A 
ATOM     26  C   UNL     1     102.229  92.674 103.145  1.00  0.00     0.001 A 
ATOM     27  C   UNL     1      99.988  93.178 102.397  1.00  0.00     0.001 A 
ATOM     28  C   UNL     1     101.287  92.753 102.119  1.00  0.00     0.000 A 
ENDBRANCH  22  23
ENDBRANCH  16  17
ENDBRANCH   2  16
TORSDOF 5
ENDMDL
MODEL 6
REMARK VINA RESULT:      -7.5     12.287     13.814
REMARK SMILES O=C(Oc1ccc(-c2ccccc2)cc1)[C@@H]1CC(=O)N(c2ccc(F)cc2)C1
REMARK SMILES IDX 1 1 2 2 16 3 20 4 28 5 18 6 19 7 17 8 21 9 24 10 23 11 26 12
REMARK SMILES IDX 22 13 27 14 25 15 3 16 4 17 5 18 15 19 6 20 14 21 7 22 8 23
REMARK SMILES IDX 9 24 13 25 10 26 12 27 11 28
REMARK H PARENT
ROOT
ATOM      1  O   UNL     1     100.860  96.420 110.357  1.00  0.00    -0.251 OA
ATOM      2  C   UNL     1     100.210  95.430 110.668  1.00  0.00     0.316 C 
ENDROOT
BRANCH   2   3
ATOM      3  C   UNL     1     100.448  94.621 111.912  1.00  0.00     0.129 C 
ATOM      4  N   UNL     1     102.740  94.643 112.435  1.00  0.00    -0.312 N 
ATOM      5  C   UNL     1     101.724  93.806 111.824  1.00  0.00     0.141 C 
ATOM      6  C   UNL     1     102.164  95.662 113.213  1.00  0.00     0.227 C 
ATOM      7  O   UNL     1     102.697  96.511 113.915  1.00  0.00    -0.274 OA
ATOM      8  C   UNL     1     100.661  95.523 113.115  1.00  0.00     0.117 C 
BRANCH   4   9
ATOM      9  C   UNL     1     104.134  94.367 112.296  1.00  0.00     0.044 A 
ATOM     10  C   UNL     1     106.862  93.827 112.022  1.00  0.00     0.123 A 
ATOM     11  C   UNL     1     106.005  92.850 112.529  1.00  0.00     0.041 A 
ATOM     12  C   UNL     1     106.357  95.073 111.652  1.00  0.00     0.041 A 
ATOM     13  C   UNL     1     104.644  93.119 112.666  1.00  0.00     0.029 A 
ATOM     14  C   UNL     1     104.996  95.343 111.788  1.00  0.00     0.029 A 
ATOM     15  F   UNL     1     108.169  93.567 111.890  1.00  0.00    -0.207 F 
ENDBRANCH   4   9
ENDBRANCH   2   3
BRANCH   2  16
ATOM     16  O   UNL     1      99.155  94.863 109.962  1.00  0.00    -0.426 OA
BRANCH  16  17
ATOM     17  C   UNL     1      99.507  94.508 108.657  1.00  0.00     0.130 A 
ATOM     18  C   UNL     1     100.219  93.347 108.457  1.00  0.00     0.048 A 
ATOM     19  C   UNL     1      99.129  95.334 107.622  1.00  0.00     0.048 A 
ATOM     20  C   UNL     1     100.572  92.993 107.156  1.00  0.00     0.012 A 
ATOM     21  C   UNL     1      99.482  94.980 106.320  1.00  0.00     0.012 A 
ATOM     22  C   UNL     1     100.203  93.809 106.087  1.00  0.00    -0.018 A 
BRANCH  22  23
ATOM     23  C   UNL     1     100.569  93.442 104.736  1.00  0.00    -0.018 A 
ATOM     24  C   UNL     1      99.626  93.519 103.711  1.00  0.00     0.009 A 
ATOM     25  C   UNL     1     101.868  93.014 104.459  1.00  0.00     0.009 A 
ATOM     26  C   UNL     1      99.981  93.169 102.409  1.00  0.00     0.001 A 
ATOM     27  C   UNL     1     102.223  92.664 103.155  1.00  0.00     0.001 A 
ATOM     28  C   UNL     1     101.280  92.741 102.131  1.00  0.00     0.000 A 
ENDBRANCH  22  23
ENDBRANCH  16  17
ENDBRANCH   2  16
TORSDOF 5
ENDMDL
MODEL 7
REMARK VINA RESULT:      -7.4      4.145      9.797
REMARK SMILES O=C(Oc1ccc(-c2ccccc2)cc1)[C@@H]1CC(=O)N(c2ccc(F)cc2)C1
REMARK SMILES IDX 1 1 2 2 16 3 20 4 28 5 18 6 19 7 17 8 21 9 24 10 23 11 26 12
REMARK SMILES IDX 22 13 27 14 25 15 3 16 4 17 5 18 15 19 6 20 14 21 7 22 8 23
REMARK SMILES IDX 9 24 13 25 10 26 12 27 11 28
REMARK H PARENT
ROOT
ATOM      1  O   UNL     1      95.455 107.789 108.036  1.00  0.00    -0.251 OA
ATOM      2  C   UNL     1      96.653 107.635 108.234  1.00  0.00     0.316 C 
ENDROOT
BRANCH   2   3
ATOM      3  C   UNL     1      97.435 106.434 107.783  1.00  0.00     0.129 C 
ATOM      4  N   UNL     1      97.759 106.536 105.456  1.00  0.00    -0.312 N 
ATOM      5  C   UNL     1      96.931 105.892 106.459  1.00  0.00     0.141 C 
ATOM      6  C   UNL     1      98.925 107.076 106.026  1.00  0.00     0.227 C 
ATOM      7  O   UNL     1      99.874 107.634 105.492  1.00  0.00    -0.274 OA
ATOM      8  C   UNL     1      98.884 106.798 107.511  1.00  0.00     0.117 C 
BRANCH   4   9
ATOM      9  C   UNL     1      97.421 106.519 104.070  1.00  0.00     0.044 A 
ATOM     10  C   UNL     1      96.759 106.485 101.354  1.00  0.00     0.123 A 
ATOM     11  C   UNL     1      98.098 106.479 101.746  1.00  0.00     0.041 A 
ATOM     12  C   UNL     1      95.751 106.510 102.318  1.00  0.00     0.041 A 
ATOM     13  C   UNL     1      98.428 106.495 103.101  1.00  0.00     0.029 A 
ATOM     14  C   UNL     1      96.081 106.526 103.673  1.00  0.00     0.029 A 
ATOM     15  F   UNL     1      96.442 106.469 100.053  1.00  0.00    -0.207 F 
ENDBRANCH   4   9
ENDBRANCH   2   3
BRANCH   2  16
ATOM     16  O   UNL     1      97.513 108.505 108.894  1.00  0.00    -0.426 OA
BRANCH  16  17
ATOM     17  C   UNL     1      97.205 108.643 110.250  1.00  0.00     0.130 A 
ATOM     18  C   UNL     1      96.526 109.767 110.662  1.00  0.00     0.048 A 
ATOM     19  C   UNL     1      97.594 107.650 111.122  1.00  0.00     0.048 A 
ATOM     20  C   UNL     1      96.220 109.906 112.016  1.00  0.00     0.012 A 
ATOM     21  C   UNL     1      97.287 107.789 112.475  1.00  0.00     0.012 A 
ATOM     22  C   UNL     1      96.600 108.917 112.922  1.00  0.00    -0.018 A 
BRANCH  22  23
ATOM     23  C   UNL     1      96.283 109.061 114.326  1.00  0.00    -0.018 A 
ATOM     24  C   UNL     1      96.503 108.001 115.205  1.00  0.00     0.009 A 
ATOM     25  C   UNL     1      95.758 110.264 114.802  1.00  0.00     0.009 A 
ATOM     26  C   UNL     1      96.200 108.142 116.559  1.00  0.00     0.001 A 
ATOM     27  C   UNL     1      95.455 110.405 116.157  1.00  0.00     0.001 A 
ATOM     28  C   UNL     1      95.676 109.343 117.035  1.00  0.00     0.000 A 
ENDBRANCH  22  23
ENDBRANCH  16  17
ENDBRANCH   2  16
TORSDOF 5
ENDMDL
MODEL 8
REMARK VINA RESULT:      -7.4     12.413     13.933
REMARK SMILES O=C(Oc1ccc(-c2ccccc2)cc1)[C@@H]1CC(=O)N(c2ccc(F)cc2)C1
REMARK SMILES IDX 1 1 2 2 16 3 20 4 28 5 18 6 19 7 17 8 21 9 24 10 23 11 26 12
REMARK SMILES IDX 22 13 27 14 25 15 3 16 4 17 5 18 15 19 6 20 14 21 7 22 8 23
REMARK SMILES IDX 9 24 13 25 10 26 12 27 11 28
REMARK H PARENT
ROOT
ATOM      1  O   UNL     1     101.317  96.389 111.380  1.00  0.00    -0.251 OA
ATOM      2  C   UNL     1     100.645  95.404 111.655  1.00  0.00     0.316 C 
ENDROOT
BRANCH   2   3
ATOM      3  C   UNL     1     100.924  94.490 112.815  1.00  0.00     0.129 C 
ATOM      4  N   UNL     1     103.234  94.462 113.253  1.00  0.00    -0.312 N 
ATOM      5  C   UNL     1     102.192  93.684 112.610  1.00  0.00     0.141 C 
ATOM      6  C   UNL     1     102.692  95.411 114.137  1.00  0.00     0.227 C 
ATOM      7  O   UNL     1     103.255  96.196 114.889  1.00  0.00    -0.274 OA
ATOM      8  C   UNL     1     101.187  95.284 114.083  1.00  0.00     0.117 C 
BRANCH   4   9
ATOM      9  C   UNL     1     104.621  94.197 113.039  1.00  0.00     0.044 A 
ATOM     10  C   UNL     1     107.335  93.678 112.618  1.00  0.00     0.123 A 
ATOM     11  C   UNL     1     106.770  93.462 113.875  1.00  0.00     0.041 A 
ATOM     12  C   UNL     1     106.545  94.153 111.571  1.00  0.00     0.041 A 
ATOM     13  C   UNL     1     105.416  93.721 114.085  1.00  0.00     0.029 A 
ATOM     14  C   UNL     1     105.191  94.412 111.781  1.00  0.00     0.029 A 
ATOM     15  F   UNL     1     108.635  93.428 112.417  1.00  0.00    -0.207 F 
ENDBRANCH   4   9
ENDBRANCH   2   3
BRANCH   2  16
ATOM     16  O   UNL     1      99.524  94.937 110.979  1.00  0.00    -0.426 OA
BRANCH  16  17
ATOM     17  C   UNL     1      99.797  94.597 109.651  1.00  0.00     0.130 A 
ATOM     18  C   UNL     1      99.588  95.542 108.672  1.00  0.00     0.048 A 
ATOM     19  C   UNL     1     100.263  93.331 109.374  1.00  0.00     0.048 A 
ATOM     20  C   UNL     1      99.858  95.204 107.346  1.00  0.00     0.012 A 
ATOM     21  C   UNL     1     100.534  92.993 108.048  1.00  0.00     0.012 A 
ATOM     22  C   UNL     1     100.332  93.930 107.034  1.00  0.00    -0.018 A 
BRANCH  22  23
ATOM     23  C   UNL     1     100.612  93.578 105.659  1.00  0.00    -0.018 A 
ATOM     24  C   UNL     1      99.567  93.451 104.743  1.00  0.00     0.009 A 
ATOM     25  C   UNL     1     101.929  93.369 105.248  1.00  0.00     0.009 A 
ATOM     26  C   UNL     1      99.838  93.115 103.418  1.00  0.00     0.001 A 
ATOM     27  C   UNL     1     102.200  93.033 103.921  1.00  0.00     0.001 A 
ATOM     28  C   UNL     1     101.155  92.906 103.006  1.00  0.00     0.000 A 
ENDBRANCH  22  23
ENDBRANCH  16  17
ENDBRANCH   2  16
TORSDOF 5
ENDMDL
MODEL 9
REMARK VINA RESULT:      -7.4     12.106     15.649
REMARK SMILES O=C(Oc1ccc(-c2ccccc2)cc1)[C@@H]1CC(=O)N(c2ccc(F)cc2)C1
REMARK SMILES IDX 1 1 2 2 16 3 20 4 28 5 18 6 19 7 17 8 21 9 24 10 23 11 26 12
REMARK SMILES IDX 22 13 27 14 25 15 3 16 4 17 5 18 15 19 6 20 14 21 7 22 8 23
REMARK SMILES IDX 9 24 13 25 10 26 12 27 11 28
REMARK H PARENT
ROOT
ATOM      1  O   UNL     1     108.112  93.636 114.137  1.00  0.00    -0.251 OA
ATOM      2  C   UNL     1     107.008  93.137 113.960  1.00  0.00     0.316 C 
ENDROOT
BRANCH   2   3
ATOM      3  C   UNL     1     106.473  92.728 112.616  1.00  0.00     0.129 C 
ATOM      4  N   UNL     1     104.736  94.184 111.988  1.00  0.00    -0.312 N 
ATOM      5  C   UNL     1     104.964  92.861 112.542  1.00  0.00     0.141 C 
ATOM      6  C   UNL     1     105.894  94.686 111.370  1.00  0.00     0.227 C 
ATOM      7  O   UNL     1     106.065  95.728 110.752  1.00  0.00    -0.274 OA
ATOM      8  C   UNL     1     106.985  93.650 111.523  1.00  0.00     0.117 C 
BRANCH   4   9
ATOM      9  C   UNL     1     103.454  94.810 112.026  1.00  0.00     0.044 A 
ATOM     10  C   UNL     1     100.943  96.037 112.098  1.00  0.00     0.123 A 
ATOM     11  C   UNL     1     102.096  96.793 112.313  1.00  0.00     0.041 A 
ATOM     12  C   UNL     1     101.044  94.668 111.847  1.00  0.00     0.041 A 
ATOM     13  C   UNL     1     103.348  96.181 112.276  1.00  0.00     0.029 A 
ATOM     14  C   UNL     1     102.297  94.056 111.811  1.00  0.00     0.029 A 
ATOM     15  F   UNL     1      99.741  96.625 112.131  1.00  0.00    -0.207 F 
ENDBRANCH   4   9
ENDBRANCH   2   3
BRANCH   2  16
ATOM     16  O   UNL     1     106.050  92.854 114.926  1.00  0.00    -0.426 OA
BRANCH  16  17
ATOM     17  C   UNL     1     105.268  93.965 115.253  1.00  0.00     0.130 A 
ATOM     18  C   UNL     1     103.933  93.775 115.531  1.00  0.00     0.048 A 
ATOM     19  C   UNL     1     105.863  95.207 115.283  1.00  0.00     0.048 A 
ATOM     20  C   UNL     1     103.152  94.884 115.857  1.00  0.00     0.012 A 
ATOM     21  C   UNL     1     105.082  96.316 115.608  1.00  0.00     0.012 A 
ATOM     22  C   UNL     1     103.727  96.154 115.895  1.00  0.00    -0.018 A 
BRANCH  22  23
ATOM     23  C   UNL     1     102.917  97.305 116.232  1.00  0.00    -0.018 A 
ATOM     24  C   UNL     1     103.450  98.330 117.013  1.00  0.00     0.009 A 
ATOM     25  C   UNL     1     101.602  97.389 115.772  1.00  0.00     0.009 A 
ATOM     26  C   UNL     1     102.669  99.440 117.334  1.00  0.00     0.001 A 
ATOM     27  C   UNL     1     100.821  98.500 116.093  1.00  0.00     0.001 A 
ATOM     28  C   UNL     1     101.355  99.525 116.875  1.00  0.00     0.000 A 
ENDBRANCH  22  23
ENDBRANCH  16  17
ENDBRANCH   2  16
TORSDOF 5
ENDMDL
MODEL 10
REMARK VINA RESULT:      -7.1     11.971     15.046
REMARK SMILES O=C(Oc1ccc(-c2ccccc2)cc1)[C@@H]1CC(=O)N(c2ccc(F)cc2)C1
REMARK SMILES IDX 1 1 2 2 16 3 20 4 28 5 18 6 19 7 17 8 21 9 24 10 23 11 26 12
REMARK SMILES IDX 22 13 27 14 25 15 3 16 4 17 5 18 15 19 6 20 14 21 7 22 8 23
REMARK SMILES IDX 9 24 13 25 10 26 12 27 11 28
REMARK H PARENT
ROOT
ATOM      1  O   UNL     1      99.322  95.741 113.493  1.00  0.00    -0.251 OA
ATOM      2  C   UNL     1      99.230  95.941 112.289  1.00  0.00     0.316 C 
ENDROOT
BRANCH   2   3
ATOM      3  C   UNL     1      97.988  95.686 111.484  1.00  0.00     0.129 C 
ATOM      4  N   UNL     1      98.561  94.586 109.486  1.00  0.00    -0.312 N 
ATOM      5  C   UNL     1      98.219  95.899 110.000  1.00  0.00     0.141 C 
ATOM      6  C   UNL     1      98.183  93.571 110.382  1.00  0.00     0.227 C 
ATOM      7  O   UNL     1      98.256  92.355 110.268  1.00  0.00    -0.274 OA
ATOM      8  C   UNL     1      97.559  94.232 111.590  1.00  0.00     0.117 C 
BRANCH   4   9
ATOM      9  C   UNL     1      99.132  94.404 108.190  1.00  0.00     0.044 A 
ATOM     10  C   UNL     1     100.250  94.048 105.653  1.00  0.00     0.123 A 
ATOM     11  C   UNL     1     100.796  93.390 106.755  1.00  0.00     0.041 A 
ATOM     12  C   UNL     1      99.146  94.884 105.818  1.00  0.00     0.041 A 
ATOM     13  C   UNL     1     100.239  93.567 108.021  1.00  0.00     0.029 A 
ATOM     14  C   UNL     1      98.588  95.062 107.084  1.00  0.00     0.029 A 
ATOM     15  F   UNL     1     100.786  93.876 104.438  1.00  0.00    -0.207 F 
ENDBRANCH   4   9
ENDBRANCH   2   3
BRANCH   2  16
ATOM     16  O   UNL     1     100.220  96.425 111.441  1.00  0.00    -0.426 OA
BRANCH  16  17
ATOM     17  C   UNL     1     101.490  95.937 111.758  1.00  0.00     0.130 A 
ATOM     18  C   UNL     1     102.437  96.816 112.232  1.00  0.00     0.048 A 
ATOM     19  C   UNL     1     101.745  94.594 111.584  1.00  0.00     0.048 A 
ATOM     20  C   UNL     1     103.705  96.330 112.547  1.00  0.00     0.012 A 
ATOM     21  C   UNL     1     103.014  94.108 111.899  1.00  0.00     0.012 A 
ATOM     22  C   UNL     1     103.993  94.976 112.382  1.00  0.00    -0.018 A 
BRANCH  22  23
ATOM     23  C   UNL     1     105.309  94.470 112.708  1.00  0.00    -0.018 A 
ATOM     24  C   UNL     1     106.185  94.093 111.689  1.00  0.00     0.009 A 
ATOM     25  C   UNL     1     105.703  94.363 114.042  1.00  0.00     0.009 A 
ATOM     26  C   UNL     1     107.454  93.609 112.005  1.00  0.00     0.001 A 
ATOM     27  C   UNL     1     106.973  93.878 114.357  1.00  0.00     0.001 A 
ATOM     28  C   UNL     1     107.848  93.501 113.338  1.00  0.00     0.000 A 
ENDBRANCH  22  23
ENDBRANCH  16  17
ENDBRANCH   2  16
TORSDOF 5
ENDMDL
MODEL 11
REMARK VINA RESULT:      -7.0     12.507     14.097
REMARK SMILES O=C(Oc1ccc(-c2ccccc2)cc1)[C@@H]1CC(=O)N(c2ccc(F)cc2)C1
REMARK SMILES IDX 1 1 2 2 16 3 20 4 28 5 18 6 19 7 17 8 21 9 24 10 23 11 26 12
REMARK SMILES IDX 22 13 27 14 25 15 3 16 4 17 5 18 15 19 6 20 14 21 7 22 8 23
REMARK SMILES IDX 9 24 13 25 10 26 12 27 11 28
REMARK H PARENT
ROOT
ATOM      1  O   UNL     1     101.341  92.523 112.053  1.00  0.00    -0.251 OA
ATOM      2  C   UNL     1     100.930  93.633 112.365  1.00  0.00     0.316 C 
ENDROOT
BRANCH   2   3
ATOM      3  C   UNL     1     101.468  94.441 113.512  1.00  0.00     0.129 C 
ATOM      4  N   UNL     1     103.802  94.642 113.303  1.00  0.00    -0.312 N 
ATOM      5  C   UNL     1     102.788  93.893 114.022  1.00  0.00     0.141 C 
ATOM      6  C   UNL     1     103.268  95.812 112.735  1.00  0.00     0.227 C 
ATOM      7  O   UNL     1     103.823  96.709 112.115  1.00  0.00    -0.274 OA
ATOM      8  C   UNL     1     101.795  95.858 113.074  1.00  0.00     0.117 C 
BRANCH   4   9
ATOM      9  C   UNL     1     105.170  94.235 113.279  1.00  0.00     0.044 A 
ATOM     10  C   UNL     1     107.849  93.440 113.233  1.00  0.00     0.123 A 
ATOM     11  C   UNL     1     107.101  93.442 112.055  1.00  0.00     0.041 A 
ATOM     12  C   UNL     1     107.259  93.834 114.434  1.00  0.00     0.041 A 
ATOM     13  C   UNL     1     105.765  93.839 112.078  1.00  0.00     0.029 A 
ATOM     14  C   UNL     1     105.922  94.231 114.457  1.00  0.00     0.029 A 
ATOM     15  F   UNL     1     109.133  93.059 113.210  1.00  0.00    -0.207 F 
ENDBRANCH   4   9
ENDBRANCH   2   3
BRANCH   2  16
ATOM     16  O   UNL     1      99.914  94.356 111.749  1.00  0.00    -0.426 OA
BRANCH  16  17
ATOM     17  C   UNL     1      99.949  94.257 110.356  1.00  0.00     0.130 A 
ATOM     18  C   UNL     1      99.949  95.414 109.610  1.00  0.00     0.048 A 
ATOM     19  C   UNL     1      99.980  93.005 109.782  1.00  0.00     0.048 A 
ATOM     20  C   UNL     1      99.982  95.316 108.220  1.00  0.00     0.012 A 
ATOM     21  C   UNL     1     100.013  92.906 108.391  1.00  0.00     0.012 A 
ATOM     22  C   UNL     1     100.014  94.062 107.610  1.00  0.00    -0.018 A 
BRANCH  22  23
ATOM     23  C   UNL     1     100.048  93.959 106.167  1.00  0.00    -0.018 A 
ATOM     24  C   UNL     1     101.110  93.311 105.537  1.00  0.00     0.009 A 
ATOM     25  C   UNL     1      99.014  94.506 105.406  1.00  0.00     0.009 A 
ATOM     26  C   UNL     1     101.140  93.210 104.147  1.00  0.00     0.001 A 
ATOM     27  C   UNL     1      99.044  94.405 104.015  1.00  0.00     0.001 A 
ATOM     28  C   UNL     1     100.107  93.757 103.385  1.00  0.00     0.000 A 
ENDBRANCH  22  23
ENDBRANCH  16  17
ENDBRANCH   2  16
TORSDOF 5
ENDMDL
MODEL 12
REMARK VINA RESULT:      -6.9     12.500     15.733
REMARK SMILES O=C(Oc1ccc(-c2ccccc2)cc1)[C@@H]1CC(=O)N(c2ccc(F)cc2)C1
REMARK SMILES IDX 1 1 2 2 16 3 20 4 28 5 18 6 19 7 17 8 21 9 24 10 23 11 26 12
REMARK SMILES IDX 22 13 27 14 25 15 3 16 4 17 5 18 15 19 6 20 14 21 7 22 8 23
REMARK SMILES IDX 9 24 13 25 10 26 12 27 11 28
REMARK H PARENT
ROOT
ATOM      1  O   UNL     1      99.018  93.230 110.253  1.00  0.00    -0.251 OA
ATOM      2  C   UNL     1      99.291  94.355 110.649  1.00  0.00     0.316 C 
ENDROOT
BRANCH   2   3
ATOM      3  C   UNL     1      99.206  95.592 109.800  1.00  0.00     0.129 C 
ATOM      4  N   UNL     1      99.206  94.986 107.528  1.00  0.00    -0.312 N 
ATOM      5  C   UNL     1     100.083  95.496 108.566  1.00  0.00     0.141 C 
ATOM      6  C   UNL     1      97.854  95.139 107.880  1.00  0.00     0.227 C 
ATOM      7  O   UNL     1      96.842  94.883 107.241  1.00  0.00    -0.274 OA
ATOM      8  C   UNL     1      97.803  95.778 109.249  1.00  0.00     0.117 C 
BRANCH   4   9
ATOM      9  C   UNL     1      99.709  94.481 106.291  1.00  0.00     0.044 A 
ATOM     10  C   UNL     1     100.695  93.491 103.871  1.00  0.00     0.123 A 
ATOM     11  C   UNL     1      99.437  94.091 103.918  1.00  0.00     0.041 A 
ATOM     12  C   UNL     1     101.461  93.383 105.032  1.00  0.00     0.041 A 
ATOM     13  C   UNL     1      98.945  94.586 105.126  1.00  0.00     0.029 A 
ATOM     14  C   UNL     1     100.969  93.877 106.240  1.00  0.00     0.029 A 
ATOM     15  F   UNL     1     101.168  93.017 102.711  1.00  0.00    -0.207 F 
ENDBRANCH   4   9
ENDBRANCH   2   3
BRANCH   2  16
ATOM     16  O   UNL     1      99.725  94.715 111.919  1.00  0.00    -0.426 OA
BRANCH  16  17
ATOM     17  C   UNL     1     101.094  94.505 112.103  1.00  0.00     0.130 A 
ATOM     18  C   UNL     1     101.948  95.580 111.996  1.00  0.00     0.048 A 
ATOM     19  C   UNL     1     101.537  93.231 112.382  1.00  0.00     0.048 A 
ATOM     20  C   UNL     1     103.315  95.370 112.177  1.00  0.00     0.012 A 
ATOM     21  C   UNL     1     102.903  93.021 112.563  1.00  0.00     0.012 A 
ATOM     22  C   UNL     1     103.792  94.092 112.461  1.00  0.00    -0.018 A 
BRANCH  22  23
ATOM     23  C   UNL     1     105.210  93.873 112.649  1.00  0.00    -0.018 A 
ATOM     24  C   UNL     1     106.090  94.039 111.579  1.00  0.00     0.009 A 
ATOM     25  C   UNL     1     105.698  93.500 113.902  1.00  0.00     0.009 A 
ATOM     26  C   UNL     1     107.457  93.831 111.762  1.00  0.00     0.001 A 
ATOM     27  C   UNL     1     107.066  93.292 114.084  1.00  0.00     0.001 A 
ATOM     28  C   UNL     1     107.945  93.457 113.014  1.00  0.00     0.000 A 
ENDBRANCH  22  23
ENDBRANCH  16  17
ENDBRANCH   2  16
TORSDOF 5
ENDMDL
MODEL 13
REMARK VINA RESULT:      -6.9     12.364     15.481
REMARK SMILES O=C(Oc1ccc(-c2ccccc2)cc1)[C@@H]1CC(=O)N(c2ccc(F)cc2)C1
REMARK SMILES IDX 1 1 2 2 16 3 20 4 28 5 18 6 19 7 17 8 21 9 24 10 23 11 26 12
REMARK SMILES IDX 22 13 27 14 25 15 3 16 4 17 5 18 15 19 6 20 14 21 7 22 8 23
REMARK SMILES IDX 9 24 13 25 10 26 12 27 11 28
REMARK H PARENT
ROOT
ATOM      1  O   UNL     1      98.164  93.080 108.803  1.00  0.00    -0.251 OA
ATOM      2  C   UNL     1      98.409  94.207 109.212  1.00  0.00     0.316 C 
ENDROOT
BRANCH   2   3
ATOM      3  C   UNL     1      98.703  95.383 108.324  1.00  0.00     0.129 C 
ATOM      4  N   UNL     1      99.371  94.617 106.204  1.00  0.00    -0.312 N 
ATOM      5  C   UNL     1      99.914  95.141 107.443  1.00  0.00     0.141 C 
ATOM      6  C   UNL     1      97.995  94.884 106.095  1.00  0.00     0.227 C 
ATOM      7  O   UNL     1      97.220  94.650 105.177  1.00  0.00    -0.274 OA
ATOM      8  C   UNL     1      97.568  95.622 107.343  1.00  0.00     0.117 C 
BRANCH   4   9
ATOM      9  C   UNL     1     100.195  93.991 105.220  1.00  0.00     0.044 A 
ATOM     10  C   UNL     1     101.807  92.766 103.293  1.00  0.00     0.123 A 
ATOM     11  C   UNL     1     102.357  93.168 104.510  1.00  0.00     0.041 A 
ATOM     12  C   UNL     1     100.452  92.976 103.038  1.00  0.00     0.041 A 
ATOM     13  C   UNL     1     101.553  93.779 105.472  1.00  0.00     0.029 A 
ATOM     14  C   UNL     1      99.647  93.587 103.999  1.00  0.00     0.029 A 
ATOM     15  F   UNL     1     102.580  92.178 102.371  1.00  0.00    -0.207 F 
ENDBRANCH   4   9
ENDBRANCH   2   3
BRANCH   2  16
ATOM     16  O   UNL     1      98.468  94.624 110.537  1.00  0.00    -0.426 OA
BRANCH  16  17
ATOM     17  C   UNL     1      99.778  94.796 110.992  1.00  0.00     0.130 A 
ATOM     18  C   UNL     1     100.616  93.704 111.020  1.00  0.00     0.048 A 
ATOM     19  C   UNL     1     100.180  96.050 111.395  1.00  0.00     0.048 A 
ATOM     20  C   UNL     1     101.924  93.874 111.475  1.00  0.00     0.012 A 
ATOM     21  C   UNL     1     101.487  96.220 111.850  1.00  0.00     0.012 A 
ATOM     22  C   UNL     1     102.359  95.132 111.889  1.00  0.00    -0.018 A 
BRANCH  22  23
ATOM     23  C   UNL     1     103.715  95.309 112.362  1.00  0.00    -0.018 A 
ATOM     24  C   UNL     1     104.722  94.441 111.939  1.00  0.00     0.009 A 
ATOM     25  C   UNL     1     104.016  96.351 113.240  1.00  0.00     0.009 A 
ATOM     26  C   UNL     1     106.029  94.614 112.393  1.00  0.00     0.001 A 
ATOM     27  C   UNL     1     105.324  96.524 113.695  1.00  0.00     0.001 A 
ATOM     28  C   UNL     1     106.330  95.655 113.271  1.00  0.00     0.000 A 
ENDBRANCH  22  23
ENDBRANCH  16  17
ENDBRANCH   2  16
TORSDOF 5
ENDMDL
MODEL 14
REMARK VINA RESULT:      -6.8      1.430      2.213
REMARK SMILES O=C(Oc1ccc(-c2ccccc2)cc1)[C@@H]1CC(=O)N(c2ccc(F)cc2)C1
REMARK SMILES IDX 1 1 2 2 16 3 20 4 28 5 18 6 19 7 17 8 21 9 24 10 23 11 26 12
REMARK SMILES IDX 22 13 27 14 25 15 3 16 4 17 5 18 15 19 6 20 14 21 7 22 8 23
REMARK SMILES IDX 9 24 13 25 10 26 12 27 11 28
REMARK H PARENT
ROOT
ATOM      1  O   UNL     1      95.513 106.720 112.225  1.00  0.00    -0.251 OA
ATOM      2  C   UNL     1      96.030 107.736 112.668  1.00  0.00     0.316 C 
ENDROOT
BRANCH   2   3
ATOM      3  C   UNL     1      96.061 108.102 114.125  1.00  0.00     0.129 C 
ATOM      4  N   UNL     1      97.514 106.649 115.268  1.00  0.00    -0.312 N 
ATOM      5  C   UNL     1      96.103 106.877 115.017  1.00  0.00     0.141 C 
ATOM      6  C   UNL     1      98.277 107.791 114.970  1.00  0.00     0.227 C 
ATOM      7  O   UNL     1      99.476 107.993 115.108  1.00  0.00    -0.274 OA
ATOM      8  C   UNL     1      97.331 108.860 114.469  1.00  0.00     0.117 C 
BRANCH   4   9
ATOM      9  C   UNL     1      97.998 105.428 115.826  1.00  0.00     0.044 A 
ATOM     10  C   UNL     1      98.945 103.036 116.919  1.00  0.00     0.123 A 
ATOM     11  C   UNL     1      99.586 103.601 115.817  1.00  0.00     0.041 A 
ATOM     12  C   UNL     1      97.830 103.664 117.475  1.00  0.00     0.041 A 
ATOM     13  C   UNL     1      99.114 104.795 115.272  1.00  0.00     0.029 A 
ATOM     14  C   UNL     1      97.358 104.857 116.930  1.00  0.00     0.029 A 
ATOM     15  F   UNL     1      99.399 101.890 117.443  1.00  0.00    -0.207 F 
ENDBRANCH   4   9
ENDBRANCH   2   3
BRANCH   2  16
ATOM     16  O   UNL     1      96.674 108.734 111.944  1.00  0.00    -0.426 OA
BRANCH  16  17
ATOM     17  C   UNL     1      96.919 108.368 110.618  1.00  0.00     0.130 A 
ATOM     18  C   UNL     1      96.020 108.753 109.650  1.00  0.00     0.048 A 
ATOM     19  C   UNL     1      98.050 107.635 110.332  1.00  0.00     0.048 A 
ATOM     20  C   UNL     1      96.263 108.386 108.326  1.00  0.00     0.012 A 
ATOM     21  C   UNL     1      98.293 107.269 109.009  1.00  0.00     0.012 A 
ATOM     22  C   UNL     1      97.400 107.645 108.006  1.00  0.00    -0.018 A 
BRANCH  22  23
ATOM     23  C   UNL     1      97.652 107.263 106.633  1.00  0.00    -0.018 A 
ATOM     24  C   UNL     1      98.853 106.643 106.290  1.00  0.00     0.009 A 
ATOM     25  C   UNL     1      96.692 107.515 105.653  1.00  0.00     0.009 A 
ATOM     26  C   UNL     1      99.094 106.273 104.967  1.00  0.00     0.001 A 
ATOM     27  C   UNL     1      96.933 107.144 104.329  1.00  0.00     0.001 A 
ATOM     28  C   UNL     1      98.135 106.524 103.987  1.00  0.00     0.000 A 
ENDBRANCH  22  23
ENDBRANCH  16  17
ENDBRANCH   2  16
TORSDOF 5
ENDMDL
MODEL 15
REMARK VINA RESULT:      -6.7     12.755     14.228
REMARK SMILES O=C(Oc1ccc(-c2ccccc2)cc1)[C@@H]1CC(=O)N(c2ccc(F)cc2)C1
REMARK SMILES IDX 1 1 2 2 16 3 20 4 28 5 18 6 19 7 17 8 21 9 24 10 23 11 26 12
REMARK SMILES IDX 22 13 27 14 25 15 3 16 4 17 5 18 15 19 6 20 14 21 7 22 8 23
REMARK SMILES IDX 9 24 13 25 10 26 12 27 11 28
REMARK H PARENT
ROOT
ATOM      1  O   UNL     1      99.942  95.535 107.941  1.00  0.00    -0.251 OA
ATOM      2  C   UNL     1      99.811  94.502 108.584  1.00  0.00     0.316 C 
ENDROOT
BRANCH   2   3
ATOM      3  C   UNL     1      99.369  94.452 110.020  1.00  0.00     0.129 C 
ATOM      4  N   UNL     1     101.254  94.278 111.415  1.00  0.00    -0.312 N 
ATOM      5  C   UNL     1     100.194  93.474 110.834  1.00  0.00     0.141 C 
ATOM      6  C   UNL     1     100.940  95.648 111.370  1.00  0.00     0.227 C 
ATOM      7  O   UNL     1     101.555  96.609 111.811  1.00  0.00    -0.274 OA
ATOM      8  C   UNL     1      99.590  95.790 110.704  1.00  0.00     0.117 C 
BRANCH   4   9
ATOM      9  C   UNL     1     102.408  93.692 112.015  1.00  0.00     0.044 A 
ATOM     10  C   UNL     1     104.670  92.543 113.190  1.00  0.00     0.123 A 
ATOM     11  C   UNL     1     103.417  91.954 113.365  1.00  0.00     0.041 A 
ATOM     12  C   UNL     1     104.793  93.706 112.430  1.00  0.00     0.041 A 
ATOM     13  C   UNL     1     102.289  92.527 112.778  1.00  0.00     0.029 A 
ATOM     14  C   UNL     1     103.665  94.279 111.844  1.00  0.00     0.029 A 
ATOM     15  F   UNL     1     105.753  91.992 113.753  1.00  0.00    -0.207 F 
ENDBRANCH   4   9
ENDBRANCH   2   3
BRANCH   2  16
ATOM     16  O   UNL     1     100.038  93.203 108.142  1.00  0.00    -0.426 OA
BRANCH  16  17
ATOM     17  C   UNL     1     100.182  93.122 106.755  1.00  0.00     0.130 A 
ATOM     18  C   UNL     1     101.423  93.349 106.205  1.00  0.00     0.048 A 
ATOM     19  C   UNL     1      99.076  92.819 105.992  1.00  0.00     0.048 A 
ATOM     20  C   UNL     1     101.567  93.270 104.820  1.00  0.00     0.012 A 
ATOM     21  C   UNL     1      99.220  92.739 104.607  1.00  0.00     0.012 A 
ATOM     22  C   UNL     1     100.466  92.964 104.021  1.00  0.00    -0.018 A 
BRANCH  22  23
ATOM     23  C   UNL     1     100.614  92.882 102.584  1.00  0.00    -0.018 A 
ATOM     24  C   UNL     1      99.600  93.352 101.749  1.00  0.00     0.009 A 
ATOM     25  C   UNL     1     101.774  92.336 102.034  1.00  0.00     0.009 A 
ATOM     26  C   UNL     1      99.745  93.275 100.364  1.00  0.00     0.001 A 
ATOM     27  C   UNL     1     101.919  92.259 100.648  1.00  0.00     0.001 A 
ATOM     28  C   UNL     1     100.905  92.729  99.814  1.00  0.00     0.000 A 
ENDBRANCH  22  23
ENDBRANCH  16  17
ENDBRANCH   2  16
TORSDOF 5
ENDMDL
