MODEL 1
REMARK VINA RESULT:     -12.3      0.000      0.000
REMARK SMILES C[C@]1(c2cccc(Cn3c(=O)n(-c4noc5ccc(Cl)cc45)c4ccccc43)c2)OC(=O)NC1=O
REMARK SMILES IDX 8 1 9 2 12 3 23 4 10 5 28 6 24 7 11 8 27 9 25 10 26 11 13 12
REMARK SMILES IDX 19 13 21 14 18 15 22 16 17 17 16 18 14 19 15 20 20 21 7 22
REMARK SMILES IDX 29 23 6 24 3 25 5 26 4 27 2 28 30 29 34 30 31 31 35 32 33 33
REMARK SMILES IDX 32 34 1 35
REMARK H PARENT 33 36
ROOT
ATOM      1  C   UNL     1     109.973 114.288  79.817  1.00  0.00     0.163 C 
ENDROOT
BRANCH   1   2
ATOM      2  N   UNL     1     111.304 113.733  79.767  1.00  0.00    -0.287 N 
ATOM      3  N   UNL     1     113.528 113.416  79.397  1.00  0.00    -0.241 N 
ATOM      4  C   UNL     1     113.018 112.267  80.049  1.00  0.00     0.076 A 
ATOM      5  C   UNL     1     112.458 114.363  79.228  1.00  0.00     0.335 A 
ATOM      6  C   UNL     1     111.650 112.468  80.260  1.00  0.00     0.070 A 
ATOM      7  C   UNL     1     113.631 111.124  80.531  1.00  0.00     0.029 A 
ATOM      8  O   UNL     1     112.494 115.467  78.700  1.00  0.00    -0.247 OA
ATOM      9  C   UNL     1     110.846 111.532  80.887  1.00  0.00     0.028 A 
ATOM     10  C   UNL     1     112.836 110.163  81.168  1.00  0.00     0.002 A 
ATOM     11  C   UNL     1     111.455 110.362  81.338  1.00  0.00     0.002 A 
BRANCH   3  12
ATOM     12  C   UNL     1     114.847 113.607  78.967  1.00  0.00     0.192 A 
ATOM     13  C   UNL     1     117.212 115.459  81.301  1.00  0.00     0.042 A 
ATOM     14  C   UNL     1     115.971 114.909  80.945  1.00  0.00     0.036 A 
ATOM     15  C   UNL     1     118.312 115.374  80.441  1.00  0.00     0.024 A 
ATOM     16  C   UNL     1     115.861 114.271  79.701  1.00  0.00     0.068 A 
ATOM     17  C   UNL     1     118.216 114.740  79.198  1.00  0.00     0.052 A 
ATOM     18  C   UNL     1     116.971 114.207  78.878  1.00  0.00     0.169 A 
ATOM     19  N   UNL     1     115.309 113.171  77.782  1.00  0.00    -0.060 NA
ATOM     20  O   UNL     1     116.644 113.552  77.731  1.00  0.00    -0.354 OA
ATOM     21  Cl  UNL     1     117.381 116.249  82.823  1.00  0.00    -0.084 Cl
ENDBRANCH   3  12
ENDBRANCH   1   2
BRANCH   1  22
ATOM     22  C   UNL     1     109.189 113.981  78.568  1.00  0.00    -0.028 A 
ATOM     23  C   UNL     1     108.198 113.009  78.606  1.00  0.00     0.014 A 
ATOM     24  C   UNL     1     109.469 114.673  77.399  1.00  0.00     0.005 A 
ATOM     25  C   UNL     1     107.472 112.726  77.450  1.00  0.00     0.005 A 
ATOM     26  C   UNL     1     108.743 114.389  76.242  1.00  0.00     0.001 A 
ATOM     27  C   UNL     1     107.743 113.416  76.268  1.00  0.00     0.008 A 
BRANCH  25  28
ATOM     28  C   UNL     1     106.384 111.665  77.477  1.00  0.00     0.214 C 
ATOM     29  O   UNL     1     106.041 111.283  78.833  1.00  0.00    -0.428 OA
ATOM     30  C   UNL     1     105.063 112.194  76.960  1.00  0.00     0.278 C 
ATOM     31  C   UNL     1     104.719 111.523  79.078  1.00  0.00     0.415 C 
ATOM     32  O   UNL     1     104.858 112.646  75.842  1.00  0.00    -0.269 OA
ATOM     33  N   UNL     1     104.155 112.061  77.969  1.00  0.00    -0.257 N 
ATOM     34  O   UNL     1     104.168 111.282  80.142  1.00  0.00    -0.224 OA
ATOM     35  C   UNL     1     106.765 110.377  76.744  1.00  0.00     0.073 C 
ATOM     36  H   UNL     1     103.181 112.333  77.897  1.00  0.00     0.176 HD
ENDBRANCH  25  28
ENDBRANCH   1  22
TORSDOF 4
ENDMDL
MODEL 2
REMARK VINA RESULT:     -11.9      2.181      2.955
REMARK SMILES C[C@]1(c2cccc(Cn3c(=O)n(-c4noc5ccc(Cl)cc45)c4ccccc43)c2)OC(=O)NC1=O
REMARK SMILES IDX 8 1 9 2 12 3 23 4 10 5 28 6 24 7 11 8 27 9 25 10 26 11 13 12
REMARK SMILES IDX 19 13 21 14 18 15 22 16 17 17 16 18 14 19 15 20 20 21 7 22
REMARK SMILES IDX 29 23 6 24 3 25 5 26 4 27 2 28 30 29 34 30 31 31 35 32 33 33
REMARK SMILES IDX 32 34 1 35
REMARK H PARENT 33 36
ROOT
ATOM      1  C   UNL     1     109.769 113.984  79.435  1.00  0.00     0.163 C 
ENDROOT
BRANCH   1   2
ATOM      2  N   UNL     1     111.134 113.520  79.491  1.00  0.00    -0.287 N 
ATOM      3  N   UNL     1     113.391 113.331  79.255  1.00  0.00    -0.241 N 
ATOM      4  C   UNL     1     112.922 112.198  79.964  1.00  0.00     0.076 A 
ATOM      5  C   UNL     1     112.273 114.189  78.965  1.00  0.00     0.335 A 
ATOM      6  C   UNL     1     111.534 112.318  80.091  1.00  0.00     0.070 A 
ATOM      7  C   UNL     1     113.582 111.135  80.557  1.00  0.00     0.029 A 
ATOM      8  O   UNL     1     112.265 115.253  78.361  1.00  0.00    -0.247 OA
ATOM      9  C   UNL     1     110.761 111.376  80.745  1.00  0.00     0.028 A 
ATOM     10  C   UNL     1     112.817 110.170  81.223  1.00  0.00     0.002 A 
ATOM     11  C   UNL     1     111.419 110.284  81.310  1.00  0.00     0.002 A 
BRANCH   3  12
ATOM     12  C   UNL     1     114.716 113.581  78.877  1.00  0.00     0.192 A 
ATOM     13  C   UNL     1     116.930 115.445  81.346  1.00  0.00     0.042 A 
ATOM     14  C   UNL     1     115.724 114.863  80.931  1.00  0.00     0.036 A 
ATOM     15  C   UNL     1     118.062 115.426  80.523  1.00  0.00     0.024 A 
ATOM     16  C   UNL     1     115.679 114.259  79.666  1.00  0.00     0.068 A 
ATOM     17  C   UNL     1     118.032 114.826  79.260  1.00  0.00     0.052 A 
ATOM     18  C   UNL     1     116.818 114.259  78.881  1.00  0.00     0.169 A 
ATOM     19  N   UNL     1     115.234 113.198  77.697  1.00  0.00    -0.060 NA
ATOM     20  O   UNL     1     116.556 113.627  77.705  1.00  0.00    -0.354 OA
ATOM     21  Cl  UNL     1     117.018 116.195  82.895  1.00  0.00    -0.084 Cl
ENDBRANCH   3  12
ENDBRANCH   1   2
BRANCH   1  22
ATOM     22  C   UNL     1     108.950 113.200  78.445  1.00  0.00    -0.028 A 
ATOM     23  C   UNL     1     109.382 113.100  77.129  1.00  0.00     0.014 A 
ATOM     24  C   UNL     1     107.776 112.588  78.862  1.00  0.00     0.005 A 
ATOM     25  C   UNL     1     108.624 112.371  76.213  1.00  0.00     0.005 A 
ATOM     26  C   UNL     1     107.018 111.861  77.944  1.00  0.00     0.001 A 
ATOM     27  C   UNL     1     107.442 111.752  76.620  1.00  0.00     0.008 A 
BRANCH  25  28
ATOM     28  C   UNL     1     109.085 112.254  74.769  1.00  0.00     0.214 C 
ATOM     29  O   UNL     1     108.341 111.237  74.050  1.00  0.00    -0.428 OA
ATOM     30  C   UNL     1     108.764 113.498  73.968  1.00  0.00     0.278 C 
ATOM     31  C   UNL     1     107.699 111.785  72.976  1.00  0.00     0.415 C 
ATOM     32  O   UNL     1     109.168 114.628  74.203  1.00  0.00    -0.269 OA
ATOM     33  N   UNL     1     107.954 113.116  72.940  1.00  0.00    -0.257 N 
ATOM     34  O   UNL     1     107.009 111.145  72.195  1.00  0.00    -0.224 OA
ATOM     35  C   UNL     1     110.565 111.895  74.625  1.00  0.00     0.073 C 
ATOM     36  H   UNL     1     107.587 113.749  72.239  1.00  0.00     0.176 HD
ENDBRANCH  25  28
ENDBRANCH   1  22
TORSDOF 4
ENDMDL
MODEL 3
REMARK VINA RESULT:     -11.5      2.502      3.029
REMARK SMILES C[C@]1(c2cccc(Cn3c(=O)n(-c4noc5ccc(Cl)cc45)c4ccccc43)c2)OC(=O)NC1=O
REMARK SMILES IDX 8 1 9 2 12 3 23 4 10 5 28 6 24 7 11 8 27 9 25 10 26 11 13 12
REMARK SMILES IDX 19 13 21 14 18 15 22 16 17 17 16 18 14 19 15 20 20 21 7 22
REMARK SMILES IDX 29 23 6 24 3 25 5 26 4 27 2 28 30 29 34 30 31 31 35 32 33 33
REMARK SMILES IDX 32 34 1 35
REMARK H PARENT 33 36
ROOT
ATOM      1  C   UNL     1     110.247 114.320  79.361  1.00  0.00     0.163 C 
ENDROOT
BRANCH   1   2
ATOM      2  N   UNL     1     111.524 113.665  79.504  1.00  0.00    -0.287 N 
ATOM      3  N   UNL     1     113.745 113.166  79.440  1.00  0.00    -0.241 N 
ATOM      4  C   UNL     1     113.065 112.086  80.054  1.00  0.00     0.076 A 
ATOM      5  C   UNL     1     112.785 114.183  79.103  1.00  0.00     0.335 A 
ATOM      6  C   UNL     1     111.701 112.398  80.076  1.00  0.00     0.070 A 
ATOM      7  C   UNL     1     113.517 110.920  80.647  1.00  0.00     0.029 A 
ATOM      8  O   UNL     1     112.977 115.259  78.551  1.00  0.00    -0.247 OA
ATOM      9  C   UNL     1     110.751 111.552  80.620  1.00  0.00     0.028 A 
ATOM     10  C   UNL     1     112.571 110.049  81.202  1.00  0.00     0.002 A 
ATOM     11  C   UNL     1     111.201 110.358  81.183  1.00  0.00     0.002 A 
BRANCH   3  12
ATOM     12  C   UNL     1     115.119 113.238  79.182  1.00  0.00     0.192 A 
ATOM     13  C   UNL     1     117.247 115.334  81.538  1.00  0.00     0.042 A 
ATOM     14  C   UNL     1     116.037 114.784  81.091  1.00  0.00     0.036 A 
ATOM     15  C   UNL     1     118.448 115.077  80.868  1.00  0.00     0.024 A 
ATOM     16  C   UNL     1     116.060 113.968  79.950  1.00  0.00     0.068 A 
ATOM     17  C   UNL     1     118.486 114.265  79.729  1.00  0.00     0.052 A 
ATOM     18  C   UNL     1     117.267 113.737  79.314  1.00  0.00     0.169 A 
ATOM     19  N   UNL     1     115.713 112.610  78.152  1.00  0.00    -0.060 NA
ATOM     20  O   UNL     1     117.063 112.928  78.240  1.00  0.00    -0.354 OA
ATOM     21  Cl  UNL     1     117.252 116.340  82.937  1.00  0.00    -0.084 Cl
ENDBRANCH   3  12
ENDBRANCH   1   2
BRANCH   1  22
ATOM     22  C   UNL     1     109.860 114.488  77.915  1.00  0.00    -0.028 A 
ATOM     23  C   UNL     1     109.603 113.364  77.143  1.00  0.00     0.014 A 
ATOM     24  C   UNL     1     109.767 115.764  77.377  1.00  0.00     0.005 A 
ATOM     25  C   UNL     1     109.243 113.520  75.804  1.00  0.00     0.005 A 
ATOM     26  C   UNL     1     109.409 115.919  76.038  1.00  0.00     0.001 A 
ATOM     27  C   UNL     1     109.146 114.797  75.252  1.00  0.00     0.008 A 
BRANCH  25  28
ATOM     28  C   UNL     1     108.958 112.298  74.947  1.00  0.00     0.214 C 
ATOM     29  O   UNL     1     107.670 112.394  74.288  1.00  0.00    -0.428 OA
ATOM     30  C   UNL     1     109.904 112.200  73.768  1.00  0.00     0.278 C 
ATOM     31  C   UNL     1     107.821 112.337  72.932  1.00  0.00     0.415 C 
ATOM     32  O   UNL     1     111.122 112.107  73.829  1.00  0.00    -0.269 OA
ATOM     33  N   UNL     1     109.140 112.224  72.638  1.00  0.00    -0.257 N 
ATOM     34  O   UNL     1     106.892 112.385  72.139  1.00  0.00    -0.224 OA
ATOM     35  C   UNL     1     108.950 110.985  75.733  1.00  0.00     0.073 C 
ATOM     36  H   UNL     1     109.514 112.168  71.698  1.00  0.00     0.176 HD
ENDBRANCH  25  28
ENDBRANCH   1  22
TORSDOF 4
ENDMDL
MODEL 4
REMARK VINA RESULT:     -11.5      3.232      9.474
REMARK SMILES C[C@]1(c2cccc(Cn3c(=O)n(-c4noc5ccc(Cl)cc45)c4ccccc43)c2)OC(=O)NC1=O
REMARK SMILES IDX 8 1 9 2 12 3 23 4 10 5 28 6 24 7 11 8 27 9 25 10 26 11 13 12
REMARK SMILES IDX 19 13 21 14 18 15 22 16 17 17 16 18 14 19 15 20 20 21 7 22
REMARK SMILES IDX 29 23 6 24 3 25 5 26 4 27 2 28 30 29 34 30 31 31 35 32 33 33
REMARK SMILES IDX 32 34 1 35
REMARK H PARENT 33 36
ROOT
ATOM      1  C   UNL     1     111.259 113.836  80.384  1.00  0.00     0.163 C 
ENDROOT
BRANCH   1   2
ATOM      2  N   UNL     1     110.362 113.569  79.286  1.00  0.00    -0.287 N 
ATOM      3  N   UNL     1     108.828 112.620  77.896  1.00  0.00    -0.241 N 
ATOM      4  C   UNL     1     109.256 113.839  77.318  1.00  0.00     0.076 A 
ATOM      5  C   UNL     1     109.505 112.443  79.153  1.00  0.00     0.335 A 
ATOM      6  C   UNL     1     110.206 114.407  78.172  1.00  0.00     0.070 A 
ATOM      7  C   UNL     1     108.852 114.521  76.183  1.00  0.00     0.029 A 
ATOM      8  O   UNL     1     109.415 111.512  79.943  1.00  0.00    -0.247 OA
ATOM      9  C   UNL     1     110.823 115.616  77.905  1.00  0.00     0.028 A 
ATOM     10  C   UNL     1     109.464 115.746  75.893  1.00  0.00     0.002 A 
ATOM     11  C   UNL     1     110.446 116.285  76.741  1.00  0.00     0.002 A 
BRANCH   3  12
ATOM     12  C   UNL     1     107.912 111.716  77.342  1.00  0.00     0.192 A 
ATOM     13  C   UNL     1     104.461 111.510  78.927  1.00  0.00     0.042 A 
ATOM     14  C   UNL     1     105.765 112.014  78.817  1.00  0.00     0.036 A 
ATOM     15  C   UNL     1     103.988 110.530  78.049  1.00  0.00     0.024 A 
ATOM     16  C   UNL     1     106.587 111.507  77.800  1.00  0.00     0.068 A 
ATOM     17  C   UNL     1     104.798 110.015  77.030  1.00  0.00     0.052 A 
ATOM     18  C   UNL     1     106.086 110.538  76.951  1.00  0.00     0.169 A 
ATOM     19  N   UNL     1     108.194 110.929  76.289  1.00  0.00    -0.060 NA
ATOM     20  O   UNL     1     107.042 110.190  76.048  1.00  0.00    -0.354 OA
ATOM     21  Cl  UNL     1     103.424 112.113  80.166  1.00  0.00    -0.084 Cl
ENDBRANCH   3  12
ENDBRANCH   1   2
BRANCH   1  22
ATOM     22  C   UNL     1     112.576 113.127  80.218  1.00  0.00    -0.028 A 
ATOM     23  C   UNL     1     113.641 113.795  79.630  1.00  0.00     0.014 A 
ATOM     24  C   UNL     1     112.707 111.818  80.657  1.00  0.00     0.005 A 
ATOM     25  C   UNL     1     114.863 113.138  79.478  1.00  0.00     0.005 A 
ATOM     26  C   UNL     1     113.928 111.161  80.505  1.00  0.00     0.001 A 
ATOM     27  C   UNL     1     115.007 111.822  79.916  1.00  0.00     0.008 A 
BRANCH  25  28
ATOM     28  C   UNL     1     116.037 113.858  78.835  1.00  0.00     0.214 C 
ATOM     29  O   UNL     1     115.597 114.913  77.943  1.00  0.00    -0.428 OA
ATOM     30  C   UNL     1     116.854 114.629  79.849  1.00  0.00     0.278 C 
ATOM     31  C   UNL     1     116.092 116.119  78.348  1.00  0.00     0.415 C 
ATOM     32  O   UNL     1     117.431 114.155  80.818  1.00  0.00    -0.269 OA
ATOM     33  N   UNL     1     116.829 115.940  79.472  1.00  0.00    -0.257 N 
ATOM     34  O   UNL     1     115.882 117.173  77.766  1.00  0.00    -0.224 OA
ATOM     35  C   UNL     1     116.942 112.939  78.011  1.00  0.00     0.073 C 
ATOM     36  H   UNL     1     117.301 116.684  79.971  1.00  0.00     0.176 HD
ENDBRANCH  25  28
ENDBRANCH   1  22
TORSDOF 4
ENDMDL
MODEL 5
REMARK VINA RESULT:     -11.4      3.413      9.783
REMARK SMILES C[C@]1(c2cccc(Cn3c(=O)n(-c4noc5ccc(Cl)cc45)c4ccccc43)c2)OC(=O)NC1=O
REMARK SMILES IDX 8 1 9 2 12 3 23 4 10 5 28 6 24 7 11 8 27 9 25 10 26 11 13 12
REMARK SMILES IDX 19 13 21 14 18 15 22 16 17 17 16 18 14 19 15 20 20 21 7 22
REMARK SMILES IDX 29 23 6 24 3 25 5 26 4 27 2 28 30 29 34 30 31 31 35 32 33 33
REMARK SMILES IDX 32 34 1 35
REMARK H PARENT 33 36
ROOT
ATOM      1  C   UNL     1     111.680 113.708  80.260  1.00  0.00     0.163 C 
ENDROOT
BRANCH   1   2
ATOM      2  N   UNL     1     110.709 113.477  79.218  1.00  0.00    -0.287 N 
ATOM      3  N   UNL     1     109.102 112.561  77.891  1.00  0.00    -0.241 N 
ATOM      4  C   UNL     1     109.445 113.828  77.360  1.00  0.00     0.076 A 
ATOM      5  C   UNL     1     109.880 112.332  79.079  1.00  0.00     0.335 A 
ATOM      6  C   UNL     1     110.442 114.376  78.175  1.00  0.00     0.070 A 
ATOM      7  C   UNL     1     108.934 114.564  76.306  1.00  0.00     0.029 A 
ATOM      8  O   UNL     1     109.880 111.352  79.812  1.00  0.00    -0.247 OA
ATOM      9  C   UNL     1     110.998 115.620  77.940  1.00  0.00     0.028 A 
ATOM     10  C   UNL     1     109.484 115.826  76.049  1.00  0.00     0.002 A 
ATOM     11  C   UNL     1     110.511 116.346  76.854  1.00  0.00     0.002 A 
BRANCH   3  12
ATOM     12  C   UNL     1     108.174 111.662  77.350  1.00  0.00     0.192 A 
ATOM     13  C   UNL     1     104.670 111.644  78.831  1.00  0.00     0.042 A 
ATOM     14  C   UNL     1     105.993 112.099  78.739  1.00  0.00     0.036 A 
ATOM     15  C   UNL     1     104.192 110.637  77.985  1.00  0.00     0.024 A 
ATOM     16  C   UNL     1     106.829 111.517  77.775  1.00  0.00     0.068 A 
ATOM     17  C   UNL     1     105.015 110.048  77.019  1.00  0.00     0.052 A 
ATOM     18  C   UNL     1     106.322 110.525  76.956  1.00  0.00     0.169 A 
ATOM     19  N   UNL     1     108.461 110.816  76.346  1.00  0.00    -0.060 NA
ATOM     20  O   UNL     1     107.294 110.103  76.103  1.00  0.00    -0.354 OA
ATOM     21  Cl  UNL     1     103.616 112.338  80.005  1.00  0.00    -0.084 Cl
ENDBRANCH   3  12
ENDBRANCH   1   2
BRANCH   1  22
ATOM     22  C   UNL     1     113.088 113.487  79.775  1.00  0.00    -0.028 A 
ATOM     23  C   UNL     1     114.133 114.173  80.379  1.00  0.00     0.014 A 
ATOM     24  C   UNL     1     113.320 112.601  78.733  1.00  0.00     0.005 A 
ATOM     25  C   UNL     1     115.438 113.967  79.930  1.00  0.00     0.005 A 
ATOM     26  C   UNL     1     114.625 112.396  78.284  1.00  0.00     0.001 A 
ATOM     27  C   UNL     1     115.684 113.078  78.884  1.00  0.00     0.008 A 
BRANCH  25  28
ATOM     28  C   UNL     1     116.592 114.711  80.582  1.00  0.00     0.214 C 
ATOM     29  O   UNL     1     117.574 113.799  81.135  1.00  0.00    -0.428 OA
ATOM     30  C   UNL     1     117.415 115.478  79.569  1.00  0.00     0.278 C 
ATOM     31  C   UNL     1     118.796 114.006  80.560  1.00  0.00     0.415 C 
ATOM     32  O   UNL     1     117.007 116.368  78.837  1.00  0.00    -0.269 OA
ATOM     33  N   UNL     1     118.689 114.995  79.639  1.00  0.00    -0.257 N 
ATOM     34  O   UNL     1     119.803 113.378  80.853  1.00  0.00    -0.224 OA
ATOM     35  C   UNL     1     116.160 115.632  81.725  1.00  0.00     0.073 C 
ATOM     36  H   UNL     1     119.457 115.333  79.072  1.00  0.00     0.176 HD
ENDBRANCH  25  28
ENDBRANCH   1  22
TORSDOF 4
ENDMDL
MODEL 6
REMARK VINA RESULT:     -11.1      2.487      3.299
REMARK SMILES C[C@]1(c2cccc(Cn3c(=O)n(-c4noc5ccc(Cl)cc45)c4ccccc43)c2)OC(=O)NC1=O
REMARK SMILES IDX 8 1 9 2 12 3 23 4 10 5 28 6 24 7 11 8 27 9 25 10 26 11 13 12
REMARK SMILES IDX 19 13 21 14 18 15 22 16 17 17 16 18 14 19 15 20 20 21 7 22
REMARK SMILES IDX 29 23 6 24 3 25 5 26 4 27 2 28 30 29 34 30 31 31 35 32 33 33
REMARK SMILES IDX 32 34 1 35
REMARK H PARENT 33 36
ROOT
ATOM      1  C   UNL     1     110.082 114.202  79.109  1.00  0.00     0.163 C 
ENDROOT
BRANCH   1   2
ATOM      2  N   UNL     1     111.413 113.675  79.284  1.00  0.00    -0.287 N 
ATOM      3  N   UNL     1     113.672 113.387  79.259  1.00  0.00    -0.241 N 
ATOM      4  C   UNL     1     113.089 112.264  79.895  1.00  0.00     0.076 A 
ATOM      5  C   UNL     1     112.626 114.299  78.883  1.00  0.00     0.335 A 
ATOM      6  C   UNL     1     111.701 112.446  79.893  1.00  0.00     0.070 A 
ATOM      7  C   UNL     1     113.641 111.162  80.525  1.00  0.00     0.029 A 
ATOM      8  O   UNL     1     112.723 115.373  78.304  1.00  0.00    -0.247 OA
ATOM      9  C   UNL     1     110.828 111.528  80.450  1.00  0.00     0.028 A 
ATOM     10  C   UNL     1     112.774 110.221  81.094  1.00  0.00     0.002 A 
ATOM     11  C   UNL     1     111.381 110.398  81.050  1.00  0.00     0.002 A 
BRANCH   3  12
ATOM     12  C   UNL     1     115.037 113.582  79.014  1.00  0.00     0.192 A 
ATOM     13  C   UNL     1     117.039 115.494  81.623  1.00  0.00     0.042 A 
ATOM     14  C   UNL     1     115.864 114.928  81.107  1.00  0.00     0.036 A 
ATOM     15  C   UNL     1     118.250 115.406  80.927  1.00  0.00     0.024 A 
ATOM     16  C   UNL     1     115.934 114.268  79.871  1.00  0.00     0.068 A 
ATOM     17  C   UNL     1     118.333 114.750  79.694  1.00  0.00     0.052 A 
ATOM     18  C   UNL     1     117.148 114.201  79.213  1.00  0.00     0.169 A 
ATOM     19  N   UNL     1     115.663 113.132  77.913  1.00  0.00    -0.060 NA
ATOM     20  O   UNL     1     116.990 113.524  78.043  1.00  0.00    -0.354 OA
ATOM     21  Cl  UNL     1     116.988 116.311  83.140  1.00  0.00    -0.084 Cl
ENDBRANCH   3  12
ENDBRANCH   1   2
BRANCH   1  22
ATOM     22  C   UNL     1     109.811 114.578  77.676  1.00  0.00    -0.028 A 
ATOM     23  C   UNL     1     109.820 113.593  76.699  1.00  0.00     0.014 A 
ATOM     24  C   UNL     1     109.556 115.903  77.355  1.00  0.00     0.005 A 
ATOM     25  C   UNL     1     109.567 113.941  75.372  1.00  0.00     0.005 A 
ATOM     26  C   UNL     1     109.305 116.251  76.027  1.00  0.00     0.001 A 
ATOM     27  C   UNL     1     109.309 115.270  75.036  1.00  0.00     0.008 A 
BRANCH  25  28
ATOM     28  C   UNL     1     109.574 112.872  74.291  1.00  0.00     0.214 C 
ATOM     29  O   UNL     1     110.924 112.498  73.915  1.00  0.00    -0.428 OA
ATOM     30  C   UNL     1     109.016 111.557  74.792  1.00  0.00     0.278 C 
ATOM     31  C   UNL     1     111.130 111.166  74.134  1.00  0.00     0.415 C 
ATOM     32  O   UNL     1     107.889 111.374  75.230  1.00  0.00    -0.269 OA
ATOM     33  N   UNL     1     110.000 110.623  74.652  1.00  0.00    -0.257 N 
ATOM     34  O   UNL     1     112.180 110.589  73.892  1.00  0.00    -0.224 OA
ATOM     35  C   UNL     1     108.864 113.296  73.004  1.00  0.00     0.073 C 
ATOM     36  H   UNL     1     109.899 109.647  74.905  1.00  0.00     0.176 HD
ENDBRANCH  25  28
ENDBRANCH   1  22
TORSDOF 4
ENDMDL
MODEL 7
REMARK VINA RESULT:     -11.0      4.140      9.128
REMARK SMILES C[C@]1(c2cccc(Cn3c(=O)n(-c4noc5ccc(Cl)cc45)c4ccccc43)c2)OC(=O)NC1=O
REMARK SMILES IDX 8 1 9 2 12 3 23 4 10 5 28 6 24 7 11 8 27 9 25 10 26 11 13 12
REMARK SMILES IDX 19 13 21 14 18 15 22 16 17 17 16 18 14 19 15 20 20 21 7 22
REMARK SMILES IDX 29 23 6 24 3 25 5 26 4 27 2 28 30 29 34 30 31 31 35 32 33 33
REMARK SMILES IDX 32 34 1 35
REMARK H PARENT 33 36
ROOT
ATOM      1  C   UNL     1     111.020 111.408  78.654  1.00  0.00     0.163 C 
ENDROOT
BRANCH   1   2
ATOM      2  N   UNL     1     110.083 111.798  77.627  1.00  0.00    -0.287 N 
ATOM      3  N   UNL     1     109.145 112.474  75.666  1.00  0.00    -0.241 N 
ATOM      4  C   UNL     1     108.107 112.274  76.609  1.00  0.00     0.076 A 
ATOM      5  C   UNL     1     110.402 112.158  76.290  1.00  0.00     0.335 A 
ATOM      6  C   UNL     1     108.696 111.871  77.812  1.00  0.00     0.070 A 
ATOM      7  C   UNL     1     106.729 112.336  76.500  1.00  0.00     0.029 A 
ATOM      8  O   UNL     1     111.526 112.216  75.810  1.00  0.00    -0.247 OA
ATOM      9  C   UNL     1     107.955 111.582  78.945  1.00  0.00     0.028 A 
ATOM     10  C   UNL     1     105.961 112.048  77.635  1.00  0.00     0.002 A 
ATOM     11  C   UNL     1     106.568 111.682  78.848  1.00  0.00     0.002 A 
BRANCH   3  12
ATOM     12  C   UNL     1     108.990 112.922  74.348  1.00  0.00     0.192 A 
ATOM     13  C   UNL     1     107.753 110.415  71.769  1.00  0.00     0.042 A 
ATOM     14  C   UNL     1     108.133 110.804  73.062  1.00  0.00     0.036 A 
ATOM     15  C   UNL     1     107.779 111.322  70.704  1.00  0.00     0.024 A 
ATOM     16  C   UNL     1     108.542 112.131  73.261  1.00  0.00     0.068 A 
ATOM     17  C   UNL     1     108.184 112.648  70.889  1.00  0.00     0.052 A 
ATOM     18  C   UNL     1     108.555 112.999  72.184  1.00  0.00     0.169 A 
ATOM     19  N   UNL     1     109.257 114.181  73.958  1.00  0.00    -0.060 NA
ATOM     20  O   UNL     1     108.982 114.223  72.596  1.00  0.00    -0.354 OA
ATOM     21  Cl  UNL     1     107.243 108.791  71.491  1.00  0.00    -0.084 Cl
ENDBRANCH   3  12
ENDBRANCH   1   2
BRANCH   1  22
ATOM     22  C   UNL     1     111.632 112.602  79.337  1.00  0.00    -0.028 A 
ATOM     23  C   UNL     1     112.986 112.861  79.174  1.00  0.00     0.014 A 
ATOM     24  C   UNL     1     110.834 113.425  80.117  1.00  0.00     0.005 A 
ATOM     25  C   UNL     1     113.553 113.967  79.805  1.00  0.00     0.005 A 
ATOM     26  C   UNL     1     111.402 114.532  80.750  1.00  0.00     0.001 A 
ATOM     27  C   UNL     1     112.762 114.804  80.593  1.00  0.00     0.008 A 
BRANCH  25  28
ATOM     28  C   UNL     1     115.035 114.263  79.636  1.00  0.00     0.214 C 
ATOM     29  O   UNL     1     115.800 113.052  79.407  1.00  0.00    -0.428 OA
ATOM     30  C   UNL     1     115.315 115.051  78.374  1.00  0.00     0.278 C 
ATOM     31  C   UNL     1     116.453 113.118  78.210  1.00  0.00     0.415 C 
ATOM     32  O   UNL     1     114.871 116.157  78.104  1.00  0.00    -0.269 OA
ATOM     33  N   UNL     1     116.158 114.298  77.610  1.00  0.00    -0.257 N 
ATOM     34  O   UNL     1     117.177 112.233  77.778  1.00  0.00    -0.224 OA
ATOM     35  C   UNL     1     115.665 114.955  80.847  1.00  0.00     0.073 C 
ATOM     36  H   UNL     1     116.516 114.586  76.707  1.00  0.00     0.176 HD
ENDBRANCH  25  28
ENDBRANCH   1  22
TORSDOF 4
ENDMDL
MODEL 8
REMARK VINA RESULT:     -11.0      3.917      7.933
REMARK SMILES C[C@]1(c2cccc(Cn3c(=O)n(-c4noc5ccc(Cl)cc45)c4ccccc43)c2)OC(=O)NC1=O
REMARK SMILES IDX 8 1 9 2 12 3 23 4 10 5 28 6 24 7 11 8 27 9 25 10 26 11 13 12
REMARK SMILES IDX 19 13 21 14 18 15 22 16 17 17 16 18 14 19 15 20 20 21 7 22
REMARK SMILES IDX 29 23 6 24 3 25 5 26 4 27 2 28 30 29 34 30 31 31 35 32 33 33
REMARK SMILES IDX 32 34 1 35
REMARK H PARENT 33 36
ROOT
ATOM      1  C   UNL     1     108.315 115.032  77.972  1.00  0.00     0.163 C 
ENDROOT
BRANCH   1   2
ATOM      2  N   UNL     1     108.145 114.001  76.977  1.00  0.00    -0.287 N 
ATOM      3  N   UNL     1     108.297 112.739  75.088  1.00  0.00    -0.241 N 
ATOM      4  C   UNL     1     107.385 112.110  75.969  1.00  0.00     0.076 A 
ATOM      5  C   UNL     1     108.803 113.928  75.719  1.00  0.00     0.335 A 
ATOM      6  C   UNL     1     107.289 112.900  77.120  1.00  0.00     0.070 A 
ATOM      7  C   UNL     1     106.703 110.907  75.898  1.00  0.00     0.029 A 
ATOM      8  O   UNL     1     109.599 114.746  75.277  1.00  0.00    -0.247 OA
ATOM      9  C   UNL     1     106.482 112.562  78.192  1.00  0.00     0.028 A 
ATOM     10  C   UNL     1     105.880 110.548  76.972  1.00  0.00     0.002 A 
ATOM     11  C   UNL     1     105.764 111.371  78.105  1.00  0.00     0.002 A 
BRANCH   3  12
ATOM     12  C   UNL     1     108.647 112.298  73.805  1.00  0.00     0.192 A 
ATOM     13  C   UNL     1     111.761 110.140  73.471  1.00  0.00     0.042 A 
ATOM     14  C   UNL     1     110.823 110.889  74.196  1.00  0.00     0.036 A 
ATOM     15  C   UNL     1     111.651 109.992  72.085  1.00  0.00     0.024 A 
ATOM     16  C   UNL     1     109.769 111.490  73.494  1.00  0.00     0.068 A 
ATOM     17  C   UNL     1     110.604 110.586  71.371  1.00  0.00     0.052 A 
ATOM     18  C   UNL     1     109.693 111.322  72.123  1.00  0.00     0.169 A 
ATOM     19  N   UNL     1     107.941 112.599  72.701  1.00  0.00    -0.060 NA
ATOM     20  O   UNL     1     108.603 111.983  71.647  1.00  0.00    -0.354 OA
ATOM     21  Cl  UNL     1     113.069 109.388  74.305  1.00  0.00    -0.084 Cl
ENDBRANCH   3  12
ENDBRANCH   1   2
BRANCH   1  22
ATOM     22  C   UNL     1     109.459 114.730  78.902  1.00  0.00    -0.028 A 
ATOM     23  C   UNL     1     110.447 113.841  78.503  1.00  0.00     0.014 A 
ATOM     24  C   UNL     1     109.510 115.347  80.144  1.00  0.00     0.005 A 
ATOM     25  C   UNL     1     111.508 113.563  79.364  1.00  0.00     0.005 A 
ATOM     26  C   UNL     1     110.572 115.068  81.006  1.00  0.00     0.001 A 
ATOM     27  C   UNL     1     111.571 114.176  80.615  1.00  0.00     0.008 A 
BRANCH  25  28
ATOM     28  C   UNL     1     112.597 112.590  78.940  1.00  0.00     0.214 C 
ATOM     29  O   UNL     1     113.892 113.237  78.860  1.00  0.00    -0.428 OA
ATOM     30  C   UNL     1     112.844 111.525  79.987  1.00  0.00     0.278 C 
ATOM     31  C   UNL     1     114.779 112.636  79.708  1.00  0.00     0.415 C 
ATOM     32  O   UNL     1     112.023 110.719  80.401  1.00  0.00    -0.269 OA
ATOM     33  N   UNL     1     114.150 111.632  80.367  1.00  0.00    -0.257 N 
ATOM     34  O   UNL     1     115.946 112.979  79.829  1.00  0.00    -0.224 OA
ATOM     35  C   UNL     1     112.346 111.946  77.575  1.00  0.00     0.073 C 
ATOM     36  H   UNL     1     114.592 111.036  81.057  1.00  0.00     0.176 HD
ENDBRANCH  25  28
ENDBRANCH   1  22
TORSDOF 4
ENDMDL
MODEL 9
REMARK VINA RESULT:     -10.9      3.685      8.442
REMARK SMILES C[C@]1(c2cccc(Cn3c(=O)n(-c4noc5ccc(Cl)cc45)c4ccccc43)c2)OC(=O)NC1=O
REMARK SMILES IDX 8 1 9 2 12 3 23 4 10 5 28 6 24 7 11 8 27 9 25 10 26 11 13 12
REMARK SMILES IDX 19 13 21 14 18 15 22 16 17 17 16 18 14 19 15 20 20 21 7 22
REMARK SMILES IDX 29 23 6 24 3 25 5 26 4 27 2 28 30 29 34 30 31 31 35 32 33 33
REMARK SMILES IDX 32 34 1 35
REMARK H PARENT 33 36
ROOT
ATOM      1  C   UNL     1     109.451 113.873  79.228  1.00  0.00     0.163 C 
ENDROOT
BRANCH   1   2
ATOM      2  N   UNL     1     108.925 113.206  78.062  1.00  0.00    -0.287 N 
ATOM      3  N   UNL     1     108.633 112.386  75.958  1.00  0.00    -0.241 N 
ATOM      4  C   UNL     1     107.524 111.992  76.745  1.00  0.00     0.076 A 
ATOM      5  C   UNL     1     109.540 113.140  76.782  1.00  0.00     0.335 A 
ATOM      6  C   UNL     1     107.708 112.512  78.031  1.00  0.00     0.070 A 
ATOM      7  C   UNL     1     106.435 111.182  76.476  1.00  0.00     0.029 A 
ATOM      8  O   UNL     1     110.601 113.661  76.467  1.00  0.00    -0.247 OA
ATOM      9  C   UNL     1     106.803 112.302  79.057  1.00  0.00     0.028 A 
ATOM     10  C   UNL     1     105.506 110.958  77.500  1.00  0.00     0.002 A 
ATOM     11  C   UNL     1     105.685 111.519  78.776  1.00  0.00     0.002 A 
BRANCH   3  12
ATOM     12  C   UNL     1     108.822 112.111  74.597  1.00  0.00     0.192 A 
ATOM     13  C   UNL     1     111.844 110.014  73.627  1.00  0.00     0.042 A 
ATOM     14  C   UNL     1     111.009 110.665  74.547  1.00  0.00     0.036 A 
ATOM     15  C   UNL     1     111.569 110.042  72.256  1.00  0.00     0.024 A 
ATOM     16  C   UNL     1     109.887 111.349  74.056  1.00  0.00     0.068 A 
ATOM     17  C   UNL     1     110.453 110.720  71.752  1.00  0.00     0.052 A 
ATOM     18  C   UNL     1     109.647 111.355  72.693  1.00  0.00     0.169 A 
ATOM     19  N   UNL     1     107.995 112.548  73.632  1.00  0.00    -0.060 NA
ATOM     20  O   UNL     1     108.519 112.070  72.437  1.00  0.00    -0.354 OA
ATOM     21  Cl  UNL     1     113.231 109.164  74.198  1.00  0.00    -0.084 Cl
ENDBRANCH   3  12
ENDBRANCH   1   2
BRANCH   1  22
ATOM     22  C   UNL     1     110.820 113.365  79.595  1.00  0.00    -0.028 A 
ATOM     23  C   UNL     1     111.935 114.139  79.303  1.00  0.00     0.014 A 
ATOM     24  C   UNL     1     110.947 112.134  80.221  1.00  0.00     0.005 A 
ATOM     25  C   UNL     1     113.203 113.669  79.644  1.00  0.00     0.005 A 
ATOM     26  C   UNL     1     112.216 111.664  80.562  1.00  0.00     0.001 A 
ATOM     27  C   UNL     1     113.344 112.433  80.274  1.00  0.00     0.008 A 
BRANCH  25  28
ATOM     28  C   UNL     1     114.433 114.506  79.329  1.00  0.00     0.214 C 
ATOM     29  O   UNL     1     115.030 115.055  80.531  1.00  0.00    -0.428 OA
ATOM     30  C   UNL     1     115.564 113.664  78.777  1.00  0.00     0.278 C 
ATOM     31  C   UNL     1     116.321 114.628  80.662  1.00  0.00     0.415 C 
ATOM     32  O   UNL     1     115.527 112.991  77.757  1.00  0.00    -0.269 OA
ATOM     33  N   UNL     1     116.623 113.809  79.625  1.00  0.00    -0.257 N 
ATOM     34  O   UNL     1     117.056 114.952  81.583  1.00  0.00    -0.224 OA
ATOM     35  C   UNL     1     114.149 115.690  78.403  1.00  0.00     0.073 C 
ATOM     36  H   UNL     1     117.521 113.358  79.495  1.00  0.00     0.176 HD
ENDBRANCH  25  28
ENDBRANCH   1  22
TORSDOF 4
ENDMDL
MODEL 10
REMARK VINA RESULT:     -10.9      3.679      8.545
REMARK SMILES C[C@]1(c2cccc(Cn3c(=O)n(-c4noc5ccc(Cl)cc45)c4ccccc43)c2)OC(=O)NC1=O
REMARK SMILES IDX 8 1 9 2 12 3 23 4 10 5 28 6 24 7 11 8 27 9 25 10 26 11 13 12
REMARK SMILES IDX 19 13 21 14 18 15 22 16 17 17 16 18 14 19 15 20 20 21 7 22
REMARK SMILES IDX 29 23 6 24 3 25 5 26 4 27 2 28 30 29 34 30 31 31 35 32 33 33
REMARK SMILES IDX 32 34 1 35
REMARK H PARENT 33 36
ROOT
ATOM      1  C   UNL     1     110.332 111.641  80.041  1.00  0.00     0.163 C 
ENDROOT
BRANCH   1   2
ATOM      2  N   UNL     1     109.990 112.132  78.728  1.00  0.00    -0.287 N 
ATOM      3  N   UNL     1     109.569 112.297  76.496  1.00  0.00    -0.241 N 
ATOM      4  C   UNL     1     109.372 113.572  77.080  1.00  0.00     0.076 A 
ATOM      5  C   UNL     1     109.941 111.369  77.530  1.00  0.00     0.335 A 
ATOM      6  C   UNL     1     109.646 113.462  78.448  1.00  0.00     0.070 A 
ATOM      7  C   UNL     1     108.918 114.772  76.561  1.00  0.00     0.029 A 
ATOM      8  O   UNL     1     110.207 110.179  77.425  1.00  0.00    -0.247 OA
ATOM      9  C   UNL     1     109.541 114.532  79.318  1.00  0.00     0.028 A 
ATOM     10  C   UNL     1     108.806 115.868  77.425  1.00  0.00     0.002 A 
ATOM     11  C   UNL     1     109.122 115.752  78.789  1.00  0.00     0.002 A 
BRANCH   3  12
ATOM     12  C   UNL     1     109.441 111.981  75.138  1.00  0.00     0.192 A 
ATOM     13  C   UNL     1     112.191 109.886  73.551  1.00  0.00     0.042 A 
ATOM     14  C   UNL     1     111.582 110.558  74.621  1.00  0.00     0.036 A 
ATOM     15  C   UNL     1     111.605 109.868  72.281  1.00  0.00     0.024 A 
ATOM     16  C   UNL     1     110.365 111.214  74.385  1.00  0.00     0.068 A 
ATOM     17  C   UNL     1     110.391 110.518  72.032  1.00  0.00     0.052 A 
ATOM     18  C   UNL     1     109.815 111.174  73.116  1.00  0.00     0.169 A 
ATOM     19  N   UNL     1     108.405 112.379  74.379  1.00  0.00    -0.060 NA
ATOM     20  O   UNL     1     108.646 111.869  73.109  1.00  0.00    -0.354 OA
ATOM     21  Cl  UNL     1     113.688 109.069  73.808  1.00  0.00    -0.084 Cl
ENDBRANCH   3  12
ENDBRANCH   1   2
BRANCH   1  22
ATOM     22  C   UNL     1     111.821 111.506  80.219  1.00  0.00    -0.028 A 
ATOM     23  C   UNL     1     112.660 112.496  79.726  1.00  0.00     0.014 A 
ATOM     24  C   UNL     1     112.332 110.395  80.874  1.00  0.00     0.005 A 
ATOM     25  C   UNL     1     114.039 112.371  79.893  1.00  0.00     0.005 A 
ATOM     26  C   UNL     1     113.712 110.271  81.040  1.00  0.00     0.001 A 
ATOM     27  C   UNL     1     114.565 111.259  80.551  1.00  0.00     0.008 A 
BRANCH  25  28
ATOM     28  C   UNL     1     114.970 113.448  79.358  1.00  0.00     0.214 C 
ATOM     29  O   UNL     1     115.958 113.840  80.343  1.00  0.00    -0.428 OA
ATOM     30  C   UNL     1     115.840 112.935  78.231  1.00  0.00     0.278 C 
ATOM     31  C   UNL     1     117.220 113.619  79.869  1.00  0.00     0.415 C 
ATOM     32  O   UNL     1     115.445 112.481  77.166  1.00  0.00    -0.269 OA
ATOM     33  N   UNL     1     117.138 113.084  78.626  1.00  0.00    -0.257 N 
ATOM     34  O   UNL     1     118.239 113.872  80.496  1.00  0.00    -0.224 OA
ATOM     35  C   UNL     1     114.246 114.727  78.932  1.00  0.00     0.073 C 
ATOM     36  H   UNL     1     117.937 112.825  78.061  1.00  0.00     0.176 HD
ENDBRANCH  25  28
ENDBRANCH   1  22
TORSDOF 4
ENDMDL
MODEL 11
REMARK VINA RESULT:     -10.8      1.743      2.786
REMARK SMILES C[C@]1(c2cccc(Cn3c(=O)n(-c4noc5ccc(Cl)cc45)c4ccccc43)c2)OC(=O)NC1=O
REMARK SMILES IDX 8 1 9 2 12 3 23 4 10 5 28 6 24 7 11 8 27 9 25 10 26 11 13 12
REMARK SMILES IDX 19 13 21 14 18 15 22 16 17 17 16 18 14 19 15 20 20 21 7 22
REMARK SMILES IDX 29 23 6 24 3 25 5 26 4 27 2 28 30 29 34 30 31 31 35 32 33 33
REMARK SMILES IDX 32 34 1 35
REMARK H PARENT 33 36
ROOT
ATOM      1  C   UNL     1     110.491 112.157  79.636  1.00  0.00     0.163 C 
ENDROOT
BRANCH   1   2
ATOM      2  N   UNL     1     111.715 112.876  79.377  1.00  0.00    -0.287 N 
ATOM      3  N   UNL     1     113.906 113.458  79.166  1.00  0.00    -0.241 N 
ATOM      4  C   UNL     1     113.114 114.565  78.776  1.00  0.00     0.076 A 
ATOM      5  C   UNL     1     113.035 112.373  79.530  1.00  0.00     0.335 A 
ATOM      6  C   UNL     1     111.771 114.201  78.922  1.00  0.00     0.070 A 
ATOM      7  C   UNL     1     113.441 115.803  78.250  1.00  0.00     0.029 A 
ATOM      8  O   UNL     1     113.336 111.256  79.931  1.00  0.00    -0.247 OA
ATOM      9  C   UNL     1     110.728 115.057  78.617  1.00  0.00     0.028 A 
ATOM     10  C   UNL     1     112.400 116.685  77.935  1.00  0.00     0.002 A 
ATOM     11  C   UNL     1     111.056 116.319  78.124  1.00  0.00     0.002 A 
BRANCH   3  12
ATOM     12  C   UNL     1     115.306 113.417  79.210  1.00  0.00     0.192 A 
ATOM     13  C   UNL     1     117.045 115.460  81.906  1.00  0.00     0.042 A 
ATOM     14  C   UNL     1     115.917 114.980  81.224  1.00  0.00     0.036 A 
ATOM     15  C   UNL     1     118.336 115.084  81.521  1.00  0.00     0.024 A 
ATOM     16  C   UNL     1     116.117 114.111  80.142  1.00  0.00     0.068 A 
ATOM     17  C   UNL     1     118.550 114.218  80.444  1.00  0.00     0.052 A 
ATOM     18  C   UNL     1     117.408 113.762  79.790  1.00  0.00     0.169 A 
ATOM     19  N   UNL     1     116.052 112.698  78.353  1.00  0.00    -0.060 NA
ATOM     20  O   UNL     1     117.373 112.919  78.722  1.00  0.00    -0.354 OA
ATOM     21  Cl  UNL     1     116.834 116.529  83.242  1.00  0.00    -0.084 Cl
ENDBRANCH   3  12
ENDBRANCH   1   2
BRANCH   1  22
ATOM     22  C   UNL     1     109.964 111.482  78.398  1.00  0.00    -0.028 A 
ATOM     23  C   UNL     1     108.594 111.433  78.178  1.00  0.00     0.014 A 
ATOM     24  C   UNL     1     110.854 110.921  77.494  1.00  0.00     0.005 A 
ATOM     25  C   UNL     1     108.106 110.809  77.031  1.00  0.00     0.005 A 
ATOM     26  C   UNL     1     110.365 110.296  76.347  1.00  0.00     0.001 A 
ATOM     27  C   UNL     1     108.991 110.241  76.114  1.00  0.00     0.008 A 
BRANCH  25  28
ATOM     28  C   UNL     1     106.608 110.747  76.778  1.00  0.00     0.214 C 
ATOM     29  O   UNL     1     105.853 110.810  78.014  1.00  0.00    -0.428 OA
ATOM     30  C   UNL     1     106.106 111.973  76.045  1.00  0.00     0.278 C 
ATOM     31  C   UNL     1     105.015 111.888  78.008  1.00  0.00     0.415 C 
ATOM     32  O   UNL     1     106.469 112.347  74.938  1.00  0.00    -0.269 OA
ATOM     33  N   UNL     1     105.174 112.566  76.845  1.00  0.00    -0.257 N 
ATOM     34  O   UNL     1     104.258 112.169  78.926  1.00  0.00    -0.224 OA
ATOM     35  C   UNL     1     106.160 109.474  76.057  1.00  0.00     0.073 C 
ATOM     36  H   UNL     1     104.668 113.409  76.600  1.00  0.00     0.176 HD
ENDBRANCH  25  28
ENDBRANCH   1  22
TORSDOF 4
ENDMDL
MODEL 12
REMARK VINA RESULT:     -10.8      3.328      9.595
REMARK SMILES C[C@]1(c2cccc(Cn3c(=O)n(-c4noc5ccc(Cl)cc45)c4ccccc43)c2)OC(=O)NC1=O
REMARK SMILES IDX 8 1 9 2 12 3 23 4 10 5 28 6 24 7 11 8 27 9 25 10 26 11 13 12
REMARK SMILES IDX 19 13 21 14 18 15 22 16 17 17 16 18 14 19 15 20 20 21 7 22
REMARK SMILES IDX 29 23 6 24 3 25 5 26 4 27 2 28 30 29 34 30 31 31 35 32 33 33
REMARK SMILES IDX 32 34 1 35
REMARK H PARENT 33 36
ROOT
ATOM      1  C   UNL     1     112.306 113.353  80.421  1.00  0.00     0.163 C 
ENDROOT
BRANCH   1   2
ATOM      2  N   UNL     1     111.182 113.292  79.518  1.00  0.00    -0.287 N 
ATOM      3  N   UNL     1     109.323 112.629  78.382  1.00  0.00    -0.241 N 
ATOM      4  C   UNL     1     109.712 113.899  77.893  1.00  0.00     0.076 A 
ATOM      5  C   UNL     1     110.232 112.238  79.426  1.00  0.00     0.335 A 
ATOM      6  C   UNL     1     110.861 114.291  78.588  1.00  0.00     0.070 A 
ATOM      7  C   UNL     1     109.133 114.758  76.975  1.00  0.00     0.029 A 
ATOM      8  O   UNL     1     110.238 111.207  80.085  1.00  0.00    -0.247 OA
ATOM      9  C   UNL     1     111.499 115.496  78.357  1.00  0.00     0.028 A 
ATOM     10  C   UNL     1     109.764 115.984  76.725  1.00  0.00     0.002 A 
ATOM     11  C   UNL     1     110.939 116.346  77.404  1.00  0.00     0.002 A 
BRANCH   3  12
ATOM     12  C   UNL     1     108.245 111.860  77.924  1.00  0.00     0.192 A 
ATOM     13  C   UNL     1     108.278 110.772  74.280  1.00  0.00     0.042 A 
ATOM     14  C   UNL     1     108.811 111.424  75.402  1.00  0.00     0.036 A 
ATOM     15  C   UNL     1     107.062 110.084  74.354  1.00  0.00     0.024 A 
ATOM     16  C   UNL     1     108.091 111.369  76.604  1.00  0.00     0.068 A 
ATOM     17  C   UNL     1     106.334 110.021  75.547  1.00  0.00     0.052 A 
ATOM     18  C   UNL     1     106.893 110.679  76.639  1.00  0.00     0.169 A 
ATOM     19  N   UNL     1     107.213 111.495  78.705  1.00  0.00    -0.060 NA
ATOM     20  O   UNL     1     106.365 110.753  77.891  1.00  0.00    -0.354 OA
ATOM     21  Cl  UNL     1     109.138 110.820  72.787  1.00  0.00    -0.084 Cl
ENDBRANCH   3  12
ENDBRANCH   1   2
BRANCH   1  22
ATOM     22  C   UNL     1     113.619 113.290  79.687  1.00  0.00    -0.028 A 
ATOM     23  C   UNL     1     114.702 114.017  80.163  1.00  0.00     0.014 A 
ATOM     24  C   UNL     1     113.727 112.507  78.547  1.00  0.00     0.005 A 
ATOM     25  C   UNL     1     115.919 113.957  79.484  1.00  0.00     0.005 A 
ATOM     26  C   UNL     1     114.945 112.448  77.868  1.00  0.00     0.001 A 
ATOM     27  C   UNL     1     116.041 113.173  78.337  1.00  0.00     0.008 A 
BRANCH  25  28
ATOM     28  C   UNL     1     117.113 114.748  79.994  1.00  0.00     0.214 C 
ATOM     29  O   UNL     1     116.716 115.754  80.961  1.00  0.00    -0.428 OA
ATOM     30  C   UNL     1     118.055 113.888  80.809  1.00  0.00     0.278 C 
ATOM     31  C   UNL     1     117.343 115.542  82.156  1.00  0.00     0.415 C 
ATOM     32  O   UNL     1     118.644 112.892  80.413  1.00  0.00    -0.269 OA
ATOM     33  N   UNL     1     118.127 114.440  82.055  1.00  0.00    -0.257 N 
ATOM     34  O   UNL     1     117.194 116.252  83.139  1.00  0.00    -0.224 OA
ATOM     35  C   UNL     1     117.879 115.481  78.891  1.00  0.00     0.073 C 
ATOM     36  H   UNL     1     118.693 114.070  82.809  1.00  0.00     0.176 HD
ENDBRANCH  25  28
ENDBRANCH   1  22
TORSDOF 4
ENDMDL
MODEL 13
REMARK VINA RESULT:     -10.8      3.178      9.160
REMARK SMILES C[C@]1(c2cccc(Cn3c(=O)n(-c4noc5ccc(Cl)cc45)c4ccccc43)c2)OC(=O)NC1=O
REMARK SMILES IDX 8 1 9 2 12 3 23 4 10 5 28 6 24 7 11 8 27 9 25 10 26 11 13 12
REMARK SMILES IDX 19 13 21 14 18 15 22 16 17 17 16 18 14 19 15 20 20 21 7 22
REMARK SMILES IDX 29 23 6 24 3 25 5 26 4 27 2 28 30 29 34 30 31 31 35 32 33 33
REMARK SMILES IDX 32 34 1 35
REMARK H PARENT 33 36
ROOT
ATOM      1  C   UNL     1     110.515 113.343  80.332  1.00  0.00     0.163 C 
ENDROOT
BRANCH   1   2
ATOM      2  N   UNL     1     109.877 113.338  79.038  1.00  0.00    -0.287 N 
ATOM      3  N   UNL     1     108.668 112.756  77.199  1.00  0.00    -0.241 N 
ATOM      4  C   UNL     1     109.235 114.033  76.971  1.00  0.00     0.076 A 
ATOM      5  C   UNL     1     109.048 112.310  78.512  1.00  0.00     0.335 A 
ATOM      6  C   UNL     1     109.986 114.375  78.101  1.00  0.00     0.070 A 
ATOM      7  C   UNL     1     109.104 114.936  75.930  1.00  0.00     0.029 A 
ATOM      8  O   UNL     1     108.769 111.257  79.070  1.00  0.00    -0.247 OA
ATOM      9  C   UNL     1     110.669 115.573  78.209  1.00  0.00     0.028 A 
ATOM     10  C   UNL     1     109.789 116.154  76.019  1.00  0.00     0.002 A 
ATOM     11  C   UNL     1     110.570 116.467  77.144  1.00  0.00     0.002 A 
BRANCH   3  12
ATOM     12  C   UNL     1     107.879 112.029  76.299  1.00  0.00     0.192 A 
ATOM     13  C   UNL     1     109.536 110.784  73.109  1.00  0.00     0.042 A 
ATOM     14  C   UNL     1     109.526 111.453  74.342  1.00  0.00     0.036 A 
ATOM     15  C   UNL     1     108.383 110.167  72.613  1.00  0.00     0.024 A 
ATOM     16  C   UNL     1     108.326 111.490  75.066  1.00  0.00     0.068 A 
ATOM     17  C   UNL     1     107.179 110.195  73.326  1.00  0.00     0.052 A 
ATOM     18  C   UNL     1     107.206 110.868  74.544  1.00  0.00     0.169 A 
ATOM     19  N   UNL     1     106.579 111.754  76.508  1.00  0.00    -0.060 NA
ATOM     20  O   UNL     1     106.162 111.025  75.401  1.00  0.00    -0.354 OA
ATOM     21  Cl  UNL     1     110.996 110.720  72.194  1.00  0.00    -0.084 Cl
ENDBRANCH   3  12
ENDBRANCH   1   2
BRANCH   1  22
ATOM     22  C   UNL     1     111.892 112.737  80.281  1.00  0.00    -0.028 A 
ATOM     23  C   UNL     1     112.958 113.504  79.831  1.00  0.00     0.014 A 
ATOM     24  C   UNL     1     112.076 111.423  80.686  1.00  0.00     0.005 A 
ATOM     25  C   UNL     1     114.235 112.943  79.786  1.00  0.00     0.005 A 
ATOM     26  C   UNL     1     113.352 110.862  80.639  1.00  0.00     0.001 A 
ATOM     27  C   UNL     1     114.432 111.623  80.190  1.00  0.00     0.008 A 
BRANCH  25  28
ATOM     28  C   UNL     1     115.411 113.771  79.295  1.00  0.00     0.214 C 
ATOM     29  O   UNL     1     116.381 114.002  80.348  1.00  0.00    -0.428 OA
ATOM     30  C   UNL     1     116.238 113.027  78.268  1.00  0.00     0.278 C 
ATOM     31  C   UNL     1     117.600 113.497  79.994  1.00  0.00     0.415 C 
ATOM     32  O   UNL     1     115.840 112.608  77.190  1.00  0.00    -0.269 OA
ATOM     33  N   UNL     1     117.503 112.924  78.769  1.00  0.00    -0.257 N 
ATOM     34  O   UNL     1     118.597 113.566  80.698  1.00  0.00    -0.224 OA
ATOM     35  C   UNL     1     115.012 115.148  78.760  1.00  0.00     0.073 C 
ATOM     36  H   UNL     1     118.271 112.473  78.287  1.00  0.00     0.176 HD
ENDBRANCH  25  28
ENDBRANCH   1  22
TORSDOF 4
ENDMDL
MODEL 14
REMARK VINA RESULT:     -10.8      3.522      8.753
REMARK SMILES C[C@]1(c2cccc(Cn3c(=O)n(-c4noc5ccc(Cl)cc45)c4ccccc43)c2)OC(=O)NC1=O
REMARK SMILES IDX 8 1 9 2 12 3 23 4 10 5 28 6 24 7 11 8 27 9 25 10 26 11 13 12
REMARK SMILES IDX 19 13 21 14 18 15 22 16 17 17 16 18 14 19 15 20 20 21 7 22
REMARK SMILES IDX 29 23 6 24 3 25 5 26 4 27 2 28 30 29 34 30 31 31 35 32 33 33
REMARK SMILES IDX 32 34 1 35
REMARK H PARENT 33 36
ROOT
ATOM      1  C   UNL     1     111.429 116.019  78.903  1.00  0.00     0.163 C 
ENDROOT
BRANCH   1   2
ATOM      2  N   UNL     1     110.936 114.683  78.668  1.00  0.00    -0.287 N 
ATOM      3  N   UNL     1     110.000 112.831  77.731  1.00  0.00    -0.241 N 
ATOM      4  C   UNL     1     110.434 112.496  79.037  1.00  0.00     0.076 A 
ATOM      5  C   UNL     1     110.329 114.207  77.475  1.00  0.00     0.335 A 
ATOM      6  C   UNL     1     110.995 113.644  79.607  1.00  0.00     0.070 A 
ATOM      7  C   UNL     1     110.453 111.299  79.731  1.00  0.00     0.029 A 
ATOM      8  O   UNL     1     110.108 114.869  76.469  1.00  0.00    -0.247 OA
ATOM      9  C   UNL     1     111.527 113.659  80.884  1.00  0.00     0.028 A 
ATOM     10  C   UNL     1     110.986 111.293  81.026  1.00  0.00     0.002 A 
ATOM     11  C   UNL     1     111.511 112.463  81.600  1.00  0.00     0.002 A 
BRANCH   3  12
ATOM     12  C   UNL     1     109.344 111.979  76.833  1.00  0.00     0.192 A 
ATOM     13  C   UNL     1     105.775 110.957  77.661  1.00  0.00     0.042 A 
ATOM     14  C   UNL     1     106.978 111.634  77.909  1.00  0.00     0.036 A 
ATOM     15  C   UNL     1     105.614 110.165  76.519  1.00  0.00     0.024 A 
ATOM     16  C   UNL     1     108.019 111.497  76.979  1.00  0.00     0.068 A 
ATOM     17  C   UNL     1     106.644 110.020  75.584  1.00  0.00     0.052 A 
ATOM     18  C   UNL     1     107.823 110.706  75.862  1.00  0.00     0.169 A 
ATOM     19  N   UNL     1     109.912 111.512  75.707  1.00  0.00    -0.060 NA
ATOM     20  O   UNL     1     108.951 110.712  75.101  1.00  0.00    -0.354 OA
ATOM     21  Cl  UNL     1     104.475 111.104  78.784  1.00  0.00    -0.084 Cl
ENDBRANCH   3  12
ENDBRANCH   1   2
BRANCH   1  22
ATOM     22  C   UNL     1     112.856 116.178  78.451  1.00  0.00    -0.028 A 
ATOM     23  C   UNL     1     113.777 115.179  78.736  1.00  0.00     0.014 A 
ATOM     24  C   UNL     1     113.229 117.319  77.756  1.00  0.00     0.005 A 
ATOM     25  C   UNL     1     115.099 115.326  78.315  1.00  0.00     0.005 A 
ATOM     26  C   UNL     1     114.551 117.466  77.337  1.00  0.00     0.001 A 
ATOM     27  C   UNL     1     115.486 116.469  77.615  1.00  0.00     0.008 A 
BRANCH  25  28
ATOM     28  C   UNL     1     116.119 114.241  78.621  1.00  0.00     0.214 C 
ATOM     29  O   UNL     1     117.425 114.799  78.910  1.00  0.00    -0.428 OA
ATOM     30  C   UNL     1     115.800 113.510  79.908  1.00  0.00     0.278 C 
ATOM     31  C   UNL     1     117.833 114.438  80.163  1.00  0.00     0.415 C 
ATOM     32  O   UNL     1     114.779 112.881  80.144  1.00  0.00    -0.269 OA
ATOM     33  N   UNL     1     116.867 113.681  80.741  1.00  0.00    -0.257 N 
ATOM     34  O   UNL     1     118.903 114.766  80.653  1.00  0.00    -0.224 OA
ATOM     35  C   UNL     1     116.313 113.243  77.477  1.00  0.00     0.073 C 
ATOM     36  H   UNL     1     116.928 113.293  81.674  1.00  0.00     0.176 HD
ENDBRANCH  25  28
ENDBRANCH   1  22
TORSDOF 4
ENDMDL
MODEL 15
REMARK VINA RESULT:     -10.8      2.494      3.715
REMARK SMILES C[C@]1(c2cccc(Cn3c(=O)n(-c4noc5ccc(Cl)cc45)c4ccccc43)c2)OC(=O)NC1=O
REMARK SMILES IDX 8 1 9 2 12 3 23 4 10 5 28 6 24 7 11 8 27 9 25 10 26 11 13 12
REMARK SMILES IDX 19 13 21 14 18 15 22 16 17 17 16 18 14 19 15 20 20 21 7 22
REMARK SMILES IDX 29 23 6 24 3 25 5 26 4 27 2 28 30 29 34 30 31 31 35 32 33 33
REMARK SMILES IDX 32 34 1 35
REMARK H PARENT 33 36
ROOT
ATOM      1  C   UNL     1     110.217 111.675  79.729  1.00  0.00     0.163 C 
ENDROOT
BRANCH   1   2
ATOM      2  N   UNL     1     111.353 112.505  79.412  1.00  0.00    -0.287 N 
ATOM      3  N   UNL     1     113.461 113.267  79.011  1.00  0.00    -0.241 N 
ATOM      4  C   UNL     1     112.561 114.348  78.849  1.00  0.00     0.076 A 
ATOM      5  C   UNL     1     112.710 112.087  79.348  1.00  0.00     0.335 A 
ATOM      6  C   UNL     1     111.271 113.872  79.110  1.00  0.00     0.070 A 
ATOM      7  C   UNL     1     112.744 115.655  78.434  1.00  0.00     0.029 A 
ATOM      8  O   UNL     1     113.125 110.959  79.579  1.00  0.00    -0.247 OA
ATOM      9  C   UNL     1     110.149 114.677  79.031  1.00  0.00     0.028 A 
ATOM     10  C   UNL     1     111.621 116.487  78.349  1.00  0.00     0.002 A 
ATOM     11  C   UNL     1     110.336 116.005  78.652  1.00  0.00     0.002 A 
BRANCH   3  12
ATOM     12  C   UNL     1     114.855 113.324  78.884  1.00  0.00     0.192 A 
ATOM     13  C   UNL     1     116.782 115.307  81.495  1.00  0.00     0.042 A 
ATOM     14  C   UNL     1     115.611 114.793  80.920  1.00  0.00     0.036 A 
ATOM     15  C   UNL     1     118.037 115.052  80.931  1.00  0.00     0.024 A 
ATOM     16  C   UNL     1     115.730 114.013  79.760  1.00  0.00     0.068 A 
ATOM     17  C   UNL     1     118.170 114.276  79.775  1.00  0.00     0.052 A 
ATOM     18  C   UNL     1     116.987 113.782  79.231  1.00  0.00     0.169 A 
ATOM     19  N   UNL     1     115.533 112.719  77.893  1.00  0.00    -0.060 NA
ATOM     20  O   UNL     1     116.873 113.010  78.117  1.00  0.00    -0.354 OA
ATOM     21  Cl  UNL     1     116.671 116.269  82.922  1.00  0.00    -0.084 Cl
ENDBRANCH   3  12
ENDBRANCH   1   2
BRANCH   1  22
ATOM     22  C   UNL     1     109.181 111.698  78.636  1.00  0.00    -0.028 A 
ATOM     23  C   UNL     1     109.590 111.736  77.310  1.00  0.00     0.014 A 
ATOM     24  C   UNL     1     107.835 111.681  78.971  1.00  0.00     0.005 A 
ATOM     25  C   UNL     1     108.631 111.756  76.298  1.00  0.00     0.005 A 
ATOM     26  C   UNL     1     106.876 111.702  77.957  1.00  0.00     0.001 A 
ATOM     27  C   UNL     1     107.274 111.738  76.621  1.00  0.00     0.008 A 
BRANCH  25  28
ATOM     28  C   UNL     1     109.064 111.797  74.841  1.00  0.00     0.214 C 
ATOM     29  O   UNL     1     108.302 110.869  74.029  1.00  0.00    -0.428 OA
ATOM     30  C   UNL     1     108.734 113.123  74.190  1.00  0.00     0.278 C 
ATOM     31  C   UNL     1     107.642 111.533  73.035  1.00  0.00     0.415 C 
ATOM     32  O   UNL     1     109.148 114.219  74.541  1.00  0.00    -0.269 OA
ATOM     33  N   UNL     1     107.903 112.860  73.141  1.00  0.00    -0.257 N 
ATOM     34  O   UNL     1     106.935 110.986  72.201  1.00  0.00    -0.224 OA
ATOM     35  C   UNL     1     110.540 111.453  74.630  1.00  0.00     0.073 C 
ATOM     36  H   UNL     1     107.526 113.568  72.522  1.00  0.00     0.176 HD
ENDBRANCH  25  28
ENDBRANCH   1  22
TORSDOF 4
ENDMDL
