MODEL 1
REMARK VINA RESULT:     -10.9      0.000      0.000
REMARK SMILES CC1=C[C@H]([C@@H]2CC(=O)N(c3ccccc3C)C2=O)C[C@@H]2C(=O)N(c3ccccc3C)C(=O)[C@H]12
REMARK SMILES IDX 22 1 32 2 23 3 20 4 4 5 19 6 33 7 2 8 3 9 21 10 31 11 1 12
REMARK SMILES IDX 24 13 29 14 25 15 28 16 26 17 27 18 30 19 5 20 6 21 17 22
REMARK SMILES IDX 7 23 18 24 9 25 8 26 10 27 15 28 11 29 14 30 12 31 13 32
REMARK SMILES IDX 16 33
REMARK H PARENT
ROOT
ATOM      1  O   UNL     1     108.279 110.279  76.566  1.00  0.00    -0.274 OA
ATOM      2  O   UNL     1     109.075 114.323  74.423  1.00  0.00    -0.273 OA
ATOM      3  N   UNL     1     108.934 112.106  75.217  1.00  0.00    -0.249 N 
ATOM      4  C   UNL     1     107.501 112.512  77.023  1.00  0.00     0.096 C 
ATOM      5  C   UNL     1     108.825 112.677  79.227  1.00  0.00     0.025 C 
ATOM      6  C   UNL     1     107.505 112.302  78.535  1.00  0.00     0.023 C 
ATOM      7  C   UNL     1     108.088 113.848  76.567  1.00  0.00     0.117 C 
ATOM      8  C   UNL     1     109.077 114.499  77.508  1.00  0.00    -0.064 C 
ATOM      9  C   UNL     1     109.407 113.954  78.691  1.00  0.00    -0.023 C 
ATOM     10  C   UNL     1     108.280 111.465  76.260  1.00  0.00     0.238 C 
ATOM     11  C   UNL     1     108.772 113.486  75.263  1.00  0.00     0.241 C 
ATOM     12  C   UNL     1     109.647 115.829  77.097  1.00  0.00     0.040 C 
ENDROOT
BRANCH   3  13
ATOM     13  C   UNL     1     109.679 111.426  74.200  1.00  0.00     0.055 A 
ATOM     14  C   UNL     1     109.083 111.076  72.989  1.00  0.00    -0.027 A 
ATOM     15  C   UNL     1     111.019 111.113  74.434  1.00  0.00     0.027 A 
ATOM     16  C   UNL     1     109.826 110.414  72.012  1.00  0.00     0.005 A 
ATOM     17  C   UNL     1     111.761 110.450  73.457  1.00  0.00     0.002 A 
ATOM     18  C   UNL     1     111.165 110.101  72.245  1.00  0.00     0.000 A 
ATOM     19  C   UNL     1     107.650 111.398  72.711  1.00  0.00     0.046 C 
ENDBRANCH   3  13
BRANCH   5  20
ATOM     20  C   UNL     1     109.870 111.562  79.173  1.00  0.00     0.096 C 
ATOM     21  C   UNL     1     110.163 110.969  80.540  1.00  0.00     0.115 C 
ATOM     22  C   UNL     1     111.202 112.125  78.745  1.00  0.00     0.237 C 
ATOM     23  C   UNL     1     111.401 111.689  80.996  1.00  0.00     0.234 C 
ATOM     24  O   UNL     1     111.456 112.385  77.576  1.00  0.00    -0.274 OA
ATOM     25  N   UNL     1     111.994 112.263  79.878  1.00  0.00    -0.250 N 
ATOM     26  O   UNL     1     111.747 111.711  82.169  1.00  0.00    -0.274 OA
BRANCH  25  27
ATOM     27  C   UNL     1     113.270 112.913  79.891  1.00  0.00     0.055 A 
ATOM     28  C   UNL     1     113.371 114.287  80.106  1.00  0.00    -0.027 A 
ATOM     29  C   UNL     1     114.421 112.153  79.684  1.00  0.00     0.027 A 
ATOM     30  C   UNL     1     114.623 114.902  80.115  1.00  0.00     0.005 A 
ATOM     31  C   UNL     1     115.673 112.767  79.693  1.00  0.00     0.002 A 
ATOM     32  C   UNL     1     115.774 114.142  79.908  1.00  0.00     0.000 A 
ATOM     33  C   UNL     1     112.155 115.126  80.330  1.00  0.00     0.046 C 
ENDBRANCH  25  27
ENDBRANCH   5  20
TORSDOF 3
ENDMDL
MODEL 2
REMARK VINA RESULT:     -10.5      0.427      1.185
REMARK SMILES CC1=C[C@H]([C@@H]2CC(=O)N(c3ccccc3C)C2=O)C[C@@H]2C(=O)N(c3ccccc3C)C(=O)[C@H]12
REMARK SMILES IDX 22 1 32 2 23 3 20 4 4 5 19 6 33 7 2 8 3 9 21 10 31 11 1 12
REMARK SMILES IDX 24 13 29 14 25 15 28 16 26 17 27 18 30 19 5 20 6 21 17 22
REMARK SMILES IDX 7 23 18 24 9 25 8 26 10 27 15 28 11 29 14 30 12 31 13 32
REMARK SMILES IDX 16 33
REMARK H PARENT
ROOT
ATOM      1  O   UNL     1     108.289 110.358  76.489  1.00  0.00    -0.274 OA
ATOM      2  O   UNL     1     109.142 114.315  74.209  1.00  0.00    -0.273 OA
ATOM      3  N   UNL     1     108.984 112.132  75.090  1.00  0.00    -0.249 N 
ATOM      4  C   UNL     1     107.482 112.602  76.822  1.00  0.00     0.096 C 
ATOM      5  C   UNL     1     108.721 112.869  79.066  1.00  0.00     0.025 C 
ATOM      6  C   UNL     1     107.430 112.455  78.341  1.00  0.00     0.023 C 
ATOM      7  C   UNL     1     108.078 113.922  76.333  1.00  0.00     0.117 C 
ATOM      8  C   UNL     1     109.026 114.619  77.282  1.00  0.00    -0.064 C 
ATOM      9  C   UNL     1     109.315 114.126  78.498  1.00  0.00    -0.023 C 
ATOM     10  C   UNL     1     108.295 111.530  76.134  1.00  0.00     0.238 C 
ATOM     11  C   UNL     1     108.813 113.511  75.072  1.00  0.00     0.241 C 
ATOM     12  C   UNL     1     109.604 115.935  76.837  1.00  0.00     0.040 C 
ENDROOT
BRANCH   3  13
ATOM     13  C   UNL     1     109.771 111.415  74.131  1.00  0.00     0.055 A 
ATOM     14  C   UNL     1     109.246 111.075  72.885  1.00  0.00    -0.027 A 
ATOM     15  C   UNL     1     111.080 111.057  74.457  1.00  0.00     0.027 A 
ATOM     16  C   UNL     1     110.028 110.377  71.965  1.00  0.00     0.005 A 
ATOM     17  C   UNL     1     111.862 110.359  73.537  1.00  0.00     0.002 A 
ATOM     18  C   UNL     1     111.337 110.019  72.291  1.00  0.00     0.000 A 
ATOM     19  C   UNL     1     107.848 111.444  72.508  1.00  0.00     0.046 C 
ENDBRANCH   3  13
BRANCH   5  20
ATOM     20  C   UNL     1     109.774 111.760  79.097  1.00  0.00     0.096 C 
ATOM     21  C   UNL     1     110.071 111.277  80.506  1.00  0.00     0.115 C 
ATOM     22  C   UNL     1     111.102 112.298  78.626  1.00  0.00     0.237 C 
ATOM     23  C   UNL     1     111.303 112.039  80.904  1.00  0.00     0.234 C 
ATOM     24  O   UNL     1     111.354 112.468  77.440  1.00  0.00    -0.274 OA
ATOM     25  N   UNL     1     111.893 112.528  79.745  1.00  0.00    -0.250 N 
ATOM     26  O   UNL     1     111.650 112.155  82.072  1.00  0.00    -0.274 OA
BRANCH  25  27
ATOM     27  C   UNL     1     113.164 113.187  79.706  1.00  0.00     0.055 A 
ATOM     28  C   UNL     1     114.339 112.489  79.982  1.00  0.00    -0.027 A 
ATOM     29  C   UNL     1     113.217 114.544  79.388  1.00  0.00     0.027 A 
ATOM     30  C   UNL     1     115.568 113.148  79.939  1.00  0.00     0.005 A 
ATOM     31  C   UNL     1     114.445 115.203  79.345  1.00  0.00     0.002 A 
ATOM     32  C   UNL     1     115.621 114.505  79.621  1.00  0.00     0.000 A 
ATOM     33  C   UNL     1     114.314 111.035  80.326  1.00  0.00     0.046 C 
ENDBRANCH  25  27
ENDBRANCH   5  20
TORSDOF 3
ENDMDL
MODEL 3
REMARK VINA RESULT:     -10.4      1.879      2.921
REMARK SMILES CC1=C[C@H]([C@@H]2CC(=O)N(c3ccccc3C)C2=O)C[C@@H]2C(=O)N(c3ccccc3C)C(=O)[C@H]12
REMARK SMILES IDX 22 1 32 2 23 3 20 4 4 5 19 6 33 7 2 8 3 9 21 10 31 11 1 12
REMARK SMILES IDX 24 13 29 14 25 15 28 16 26 17 27 18 30 19 5 20 6 21 17 22
REMARK SMILES IDX 7 23 18 24 9 25 8 26 10 27 15 28 11 29 14 30 12 31 13 32
REMARK SMILES IDX 16 33
REMARK H PARENT
ROOT
ATOM      1  O   UNL     1     110.892 110.779  77.494  1.00  0.00    -0.274 OA
ATOM      2  O   UNL     1     107.510 113.801  76.490  1.00  0.00    -0.273 OA
ATOM      3  N   UNL     1     109.264 112.225  76.576  1.00  0.00    -0.249 N 
ATOM      4  C   UNL     1     109.485 112.131  78.905  1.00  0.00     0.096 C 
ATOM      5  C   UNL     1     111.447 113.598  79.701  1.00  0.00     0.025 C 
ATOM      6  C   UNL     1     110.582 112.351  79.943  1.00  0.00     0.023 C 
ATOM      7  C   UNL     1     108.687 113.386  78.549  1.00  0.00     0.117 C 
ATOM      8  C   UNL     1     109.386 114.707  78.771  1.00  0.00    -0.064 C 
ATOM      9  C   UNL     1     110.630 114.784  79.276  1.00  0.00    -0.023 C 
ATOM     10  C   UNL     1     109.994 111.607  77.581  1.00  0.00     0.238 C 
ATOM     11  C   UNL     1     108.398 113.192  77.073  1.00  0.00     0.241 C 
ATOM     12  C   UNL     1     108.613 115.959  78.458  1.00  0.00     0.040 C 
ENDROOT
BRANCH   3  13
ATOM     13  C   UNL     1     109.377 111.898  75.186  1.00  0.00     0.055 A 
ATOM     14  C   UNL     1     108.457 111.046  74.575  1.00  0.00    -0.027 A 
ATOM     15  C   UNL     1     110.424 112.442  74.443  1.00  0.00     0.027 A 
ATOM     16  C   UNL     1     108.585 110.739  73.220  1.00  0.00     0.005 A 
ATOM     17  C   UNL     1     110.552 112.135  73.088  1.00  0.00     0.002 A 
ATOM     18  C   UNL     1     109.632 111.283  72.476  1.00  0.00     0.000 A 
ATOM     19  C   UNL     1     107.326 110.447  75.346  1.00  0.00     0.046 C 
ENDBRANCH   3  13
BRANCH   5  20
ATOM     20  C   UNL     1     112.581 113.359  78.705  1.00  0.00     0.096 C 
ATOM     21  C   UNL     1     113.251 112.009  78.895  1.00  0.00     0.115 C 
ATOM     22  C   UNL     1     113.700 114.341  78.952  1.00  0.00     0.237 C 
ATOM     23  C   UNL     1     114.461 112.313  79.732  1.00  0.00     0.234 C 
ATOM     24  O   UNL     1     113.644 115.503  78.571  1.00  0.00    -0.274 OA
ATOM     25  N   UNL     1     114.707 113.678  79.643  1.00  0.00    -0.250 N 
ATOM     26  O   UNL     1     115.062 111.445  80.349  1.00  0.00    -0.274 OA
BRANCH  25  27
ATOM     27  C   UNL     1     115.861 114.324  80.192  1.00  0.00     0.055 A 
ATOM     28  C   UNL     1     117.100 114.235  79.558  1.00  0.00    -0.027 A 
ATOM     29  C   UNL     1     115.734 115.049  81.377  1.00  0.00     0.027 A 
ATOM     30  C   UNL     1     118.213 114.871  80.109  1.00  0.00     0.005 A 
ATOM     31  C   UNL     1     116.846 115.685  81.928  1.00  0.00     0.002 A 
ATOM     32  C   UNL     1     118.086 115.596  81.294  1.00  0.00     0.000 A 
ATOM     33  C   UNL     1     117.266 113.466  78.288  1.00  0.00     0.046 C 
ENDBRANCH  25  27
ENDBRANCH   5  20
TORSDOF 3
ENDMDL
MODEL 4
REMARK VINA RESULT:      -9.7      0.406      1.236
REMARK SMILES CC1=C[C@H]([C@@H]2CC(=O)N(c3ccccc3C)C2=O)C[C@@H]2C(=O)N(c3ccccc3C)C(=O)[C@H]12
REMARK SMILES IDX 22 1 32 2 23 3 20 4 4 5 19 6 33 7 2 8 3 9 21 10 31 11 1 12
REMARK SMILES IDX 24 13 29 14 25 15 28 16 26 17 27 18 30 19 5 20 6 21 17 22
REMARK SMILES IDX 7 23 18 24 9 25 8 26 10 27 15 28 11 29 14 30 12 31 13 32
REMARK SMILES IDX 16 33
REMARK H PARENT
ROOT
ATOM      1  O   UNL     1     108.454 110.259  76.577  1.00  0.00    -0.274 OA
ATOM      2  O   UNL     1     108.856 114.300  74.321  1.00  0.00    -0.273 OA
ATOM      3  N   UNL     1     108.886 112.090  75.146  1.00  0.00    -0.249 N 
ATOM      4  C   UNL     1     107.651 112.469  77.098  1.00  0.00     0.096 C 
ATOM      5  C   UNL     1     109.206 112.710  79.138  1.00  0.00     0.025 C 
ATOM      6  C   UNL     1     107.831 112.278  78.601  1.00  0.00     0.023 C 
ATOM      7  C   UNL     1     108.133 113.818  76.566  1.00  0.00     0.117 C 
ATOM      8  C   UNL     1     109.196 114.517  77.384  1.00  0.00    -0.064 C 
ATOM      9  C   UNL     1     109.676 113.999  78.528  1.00  0.00    -0.023 C 
ATOM     10  C   UNL     1     108.377 111.440  76.262  1.00  0.00     0.238 C 
ATOM     11  C   UNL     1     108.680 113.463  75.197  1.00  0.00     0.241 C 
ATOM     12  C   UNL     1     109.668 115.860  76.900  1.00  0.00     0.040 C 
ENDROOT
BRANCH   3  13
ATOM     13  C   UNL     1     109.538 111.423  74.058  1.00  0.00     0.055 A 
ATOM     14  C   UNL     1     110.856 110.981  74.177  1.00  0.00    -0.027 A 
ATOM     15  C   UNL     1     108.838 111.217  72.869  1.00  0.00     0.027 A 
ATOM     16  C   UNL     1     111.473 110.334  73.106  1.00  0.00     0.005 A 
ATOM     17  C   UNL     1     109.455 110.570  71.799  1.00  0.00     0.002 A 
ATOM     18  C   UNL     1     110.773 110.128  71.917  1.00  0.00     0.000 A 
ATOM     19  C   UNL     1     111.630 111.189  75.437  1.00  0.00     0.046 C 
ENDBRANCH   3  13
BRANCH   5  20
ATOM     20  C   UNL     1     110.278 111.632  78.977  1.00  0.00     0.096 C 
ATOM     21  C   UNL     1     110.551 110.881  80.269  1.00  0.00     0.115 C 
ATOM     22  C   UNL     1     111.607 112.271  78.659  1.00  0.00     0.237 C 
ATOM     23  C   UNL     1     111.758 111.564  80.845  1.00  0.00     0.234 C 
ATOM     24  O   UNL     1     111.885 112.679  77.539  1.00  0.00    -0.274 OA
ATOM     25  N   UNL     1     112.366 112.284  79.823  1.00  0.00    -0.250 N 
ATOM     26  O   UNL     1     112.073 111.449  82.021  1.00  0.00    -0.274 OA
BRANCH  25  27
ATOM     27  C   UNL     1     113.625 112.954  79.952  1.00  0.00     0.055 A 
ATOM     28  C   UNL     1     113.684 114.311  80.265  1.00  0.00    -0.027 A 
ATOM     29  C   UNL     1     114.802 112.231  79.760  1.00  0.00     0.027 A 
ATOM     30  C   UNL     1     114.921 114.946  80.387  1.00  0.00     0.005 A 
ATOM     31  C   UNL     1     116.038 112.864  79.880  1.00  0.00     0.002 A 
ATOM     32  C   UNL     1     116.097 114.223  80.194  1.00  0.00     0.000 A 
ATOM     33  C   UNL     1     112.440 115.112  80.478  1.00  0.00     0.046 C 
ENDBRANCH  25  27
ENDBRANCH   5  20
TORSDOF 3
ENDMDL
MODEL 5
REMARK VINA RESULT:      -9.5      1.818      2.989
REMARK SMILES CC1=C[C@H]([C@@H]2CC(=O)N(c3ccccc3C)C2=O)C[C@@H]2C(=O)N(c3ccccc3C)C(=O)[C@H]12
REMARK SMILES IDX 22 1 32 2 23 3 20 4 4 5 19 6 33 7 2 8 3 9 21 10 31 11 1 12
REMARK SMILES IDX 24 13 29 14 25 15 28 16 26 17 27 18 30 19 5 20 6 21 17 22
REMARK SMILES IDX 7 23 18 24 9 25 8 26 10 27 15 28 11 29 14 30 12 31 13 32
REMARK SMILES IDX 16 33
REMARK H PARENT
ROOT
ATOM      1  O   UNL     1     110.678 110.634  77.649  1.00  0.00    -0.274 OA
ATOM      2  O   UNL     1     107.375 113.669  76.441  1.00  0.00    -0.273 OA
ATOM      3  N   UNL     1     109.083 112.053  76.635  1.00  0.00    -0.249 N 
ATOM      4  C   UNL     1     109.324 112.131  78.961  1.00  0.00     0.096 C 
ATOM      5  C   UNL     1     111.336 113.597  79.628  1.00  0.00     0.025 C 
ATOM      6  C   UNL     1     110.437 112.398  79.971  1.00  0.00     0.023 C 
ATOM      7  C   UNL     1     108.559 113.378  78.517  1.00  0.00     0.117 C 
ATOM      8  C   UNL     1     109.299 114.692  78.631  1.00  0.00    -0.064 C 
ATOM      9  C   UNL     1     110.549 114.770  79.119  1.00  0.00    -0.023 C 
ATOM     10  C   UNL     1     109.806 111.492  77.679  1.00  0.00     0.238 C 
ATOM     11  C   UNL     1     108.250 113.080  77.062  1.00  0.00     0.241 C 
ATOM     12  C   UNL     1     108.560 115.938  78.228  1.00  0.00     0.040 C 
ENDROOT
BRANCH   3  13
ATOM     13  C   UNL     1     109.173 111.617  75.273  1.00  0.00     0.055 A 
ATOM     14  C   UNL     1     110.331 111.837  74.526  1.00  0.00    -0.027 A 
ATOM     15  C   UNL     1     108.085 110.963  74.695  1.00  0.00     0.027 A 
ATOM     16  C   UNL     1     110.399 111.405  73.202  1.00  0.00     0.005 A 
ATOM     17  C   UNL     1     108.153 110.531  73.371  1.00  0.00     0.002 A 
ATOM     18  C   UNL     1     109.311 110.751  72.624  1.00  0.00     0.000 A 
ATOM     19  C   UNL     1     111.511 112.536  75.119  1.00  0.00     0.046 C 
ENDBRANCH   3  13
BRANCH   5  20
ATOM     20  C   UNL     1     112.453 113.248  78.644  1.00  0.00     0.096 C 
ATOM     21  C   UNL     1     113.072 111.889  78.920  1.00  0.00     0.115 C 
ATOM     22  C   UNL     1     113.610 114.200  78.821  1.00  0.00     0.237 C 
ATOM     23  C   UNL     1     114.299 112.200  79.730  1.00  0.00     0.234 C 
ATOM     24  O   UNL     1     113.597 115.336  78.364  1.00  0.00    -0.274 OA
ATOM     25  N   UNL     1     114.596 113.545  79.549  1.00  0.00    -0.250 N 
ATOM     26  O   UNL     1     114.870 111.351  80.401  1.00  0.00    -0.274 OA
BRANCH  25  27
ATOM     27  C   UNL     1     115.779 114.181  80.049  1.00  0.00     0.055 A 
ATOM     28  C   UNL     1     117.008 114.002  79.417  1.00  0.00    -0.027 A 
ATOM     29  C   UNL     1     115.688 114.985  81.185  1.00  0.00     0.027 A 
ATOM     30  C   UNL     1     118.148 114.630  79.919  1.00  0.00     0.005 A 
ATOM     31  C   UNL     1     116.828 115.613  81.688  1.00  0.00     0.002 A 
ATOM     32  C   UNL     1     118.058 115.435  81.054  1.00  0.00     0.000 A 
ATOM     33  C   UNL     1     117.135 113.146  78.199  1.00  0.00     0.046 C 
ENDBRANCH  25  27
ENDBRANCH   5  20
TORSDOF 3
ENDMDL
MODEL 6
REMARK VINA RESULT:      -9.2      1.595      7.223
REMARK SMILES CC1=C[C@H]([C@@H]2CC(=O)N(c3ccccc3C)C2=O)C[C@@H]2C(=O)N(c3ccccc3C)C(=O)[C@H]12
REMARK SMILES IDX 22 1 32 2 23 3 20 4 4 5 19 6 33 7 2 8 3 9 21 10 31 11 1 12
REMARK SMILES IDX 24 13 29 14 25 15 28 16 26 17 27 18 30 19 5 20 6 21 17 22
REMARK SMILES IDX 7 23 18 24 9 25 8 26 10 27 15 28 11 29 14 30 12 31 13 32
REMARK SMILES IDX 16 33
REMARK H PARENT
ROOT
ATOM      1  O   UNL     1     111.875 116.032  77.748  1.00  0.00    -0.274 OA
ATOM      2  O   UNL     1     111.012 112.754  80.925  1.00  0.00    -0.273 OA
ATOM      3  N   UNL     1     111.847 114.260  79.312  1.00  0.00    -0.249 N 
ATOM      4  C   UNL     1     109.859 115.430  78.918  1.00  0.00     0.096 C 
ATOM      5  C   UNL     1     108.700 114.579  76.780  1.00  0.00     0.025 C 
ATOM      6  C   UNL     1     108.961 115.761  77.729  1.00  0.00     0.023 C 
ATOM      7  C   UNL     1     109.512 114.123  79.631  1.00  0.00     0.117 C 
ATOM      8  C   UNL     1     108.789 113.083  78.804  1.00  0.00    -0.064 C 
ATOM      9  C   UNL     1     108.445 113.299  77.523  1.00  0.00    -0.023 C 
ATOM     10  C   UNL     1     111.322 115.303  78.561  1.00  0.00     0.238 C 
ATOM     11  C   UNL     1     110.872 113.599  80.050  1.00  0.00     0.241 C 
ATOM     12  C   UNL     1     108.410 111.799  79.488  1.00  0.00     0.040 C 
ENDROOT
BRANCH   3  13
ATOM     13  C   UNL     1     113.236 113.911  79.337  1.00  0.00     0.055 A 
ATOM     14  C   UNL     1     113.717 112.835  78.591  1.00  0.00    -0.027 A 
ATOM     15  C   UNL     1     114.113 114.664  80.120  1.00  0.00     0.027 A 
ATOM     16  C   UNL     1     115.073 112.512  78.628  1.00  0.00     0.005 A 
ATOM     17  C   UNL     1     115.469 114.340  80.157  1.00  0.00     0.002 A 
ATOM     18  C   UNL     1     115.950 113.264  79.411  1.00  0.00     0.000 A 
ATOM     19  C   UNL     1     112.802 112.011  77.745  1.00  0.00     0.046 C 
ENDBRANCH   3  13
BRANCH   5  20
ATOM     20  C   UNL     1     109.813 114.376  75.752  1.00  0.00     0.096 C 
ATOM     21  C   UNL     1     109.617 115.219  74.504  1.00  0.00     0.115 C 
ATOM     22  C   UNL     1     109.777 112.963  75.227  1.00  0.00     0.237 C 
ATOM     23  C   UNL     1     108.963 114.284  73.527  1.00  0.00     0.234 C 
ATOM     24  O   UNL     1     110.226 112.017  75.863  1.00  0.00    -0.274 OA
ATOM     25  N   UNL     1     109.175 112.986  73.975  1.00  0.00    -0.250 N 
ATOM     26  O   UNL     1     108.368 114.687  72.537  1.00  0.00    -0.274 OA
BRANCH  25  27
ATOM     27  C   UNL     1     108.822 111.812  73.233  1.00  0.00     0.055 A 
ATOM     28  C   UNL     1     107.702 111.058  73.579  1.00  0.00    -0.027 A 
ATOM     29  C   UNL     1     109.616 111.427  72.153  1.00  0.00     0.027 A 
ATOM     30  C   UNL     1     107.374 109.918  72.844  1.00  0.00     0.005 A 
ATOM     31  C   UNL     1     109.289 110.288  71.418  1.00  0.00     0.002 A 
ATOM     32  C   UNL     1     108.168 109.534  71.764  1.00  0.00     0.000 A 
ATOM     33  C   UNL     1     106.832 111.447  74.731  1.00  0.00     0.046 C 
ENDBRANCH  25  27
ENDBRANCH   5  20
TORSDOF 3
ENDMDL
MODEL 7
REMARK VINA RESULT:      -9.1      1.702      7.522
REMARK SMILES CC1=C[C@H]([C@@H]2CC(=O)N(c3ccccc3C)C2=O)C[C@@H]2C(=O)N(c3ccccc3C)C(=O)[C@H]12
REMARK SMILES IDX 22 1 32 2 23 3 20 4 4 5 19 6 33 7 2 8 3 9 21 10 31 11 1 12
REMARK SMILES IDX 24 13 29 14 25 15 28 16 26 17 27 18 30 19 5 20 6 21 17 22
REMARK SMILES IDX 7 23 18 24 9 25 8 26 10 27 15 28 11 29 14 30 12 31 13 32
REMARK SMILES IDX 16 33
REMARK H PARENT
ROOT
ATOM      1  O   UNL     1     112.826 114.816  78.671  1.00  0.00    -0.274 OA
ATOM      2  O   UNL     1     114.390 111.245  81.196  1.00  0.00    -0.273 OA
ATOM      3  N   UNL     1     113.983 113.050  79.733  1.00  0.00    -0.249 N 
ATOM      4  C   UNL     1     111.768 113.471  80.365  1.00  0.00     0.096 C 
ATOM      5  C   UNL     1     110.118 112.408  78.695  1.00  0.00     0.025 C 
ATOM      6  C   UNL     1     110.399 113.542  79.695  1.00  0.00     0.023 C 
ATOM      7  C   UNL     1     112.156 112.081  80.871  1.00  0.00     0.117 C 
ATOM      8  C   UNL     1     111.490 110.910  80.184  1.00  0.00    -0.064 C 
ATOM      9  C   UNL     1     110.589 111.075  79.200  1.00  0.00    -0.023 C 
ATOM     10  C   UNL     1     112.909 113.888  79.465  1.00  0.00     0.238 C 
ATOM     11  C   UNL     1     113.652 112.042  80.631  1.00  0.00     0.241 C 
ATOM     12  C   UNL     1     111.830 109.533  80.682  1.00  0.00     0.040 C 
ENDROOT
BRANCH   3  13
ATOM     13  C   UNL     1     115.286 113.210  79.161  1.00  0.00     0.055 A 
ATOM     14  C   UNL     1     116.192 114.128  79.691  1.00  0.00    -0.027 A 
ATOM     15  C   UNL     1     115.645 112.434  78.059  1.00  0.00     0.027 A 
ATOM     16  C   UNL     1     117.457 114.270  79.120  1.00  0.00     0.005 A 
ATOM     17  C   UNL     1     116.910 112.575  77.487  1.00  0.00     0.002 A 
ATOM     18  C   UNL     1     117.816 113.493  78.018  1.00  0.00     0.000 A 
ATOM     19  C   UNL     1     115.835 114.974  80.870  1.00  0.00     0.046 C 
ENDBRANCH   3  13
BRANCH   5  20
ATOM     20  C   UNL     1     110.697 112.676  77.305  1.00  0.00     0.096 C 
ATOM     21  C   UNL     1     110.118 113.924  76.661  1.00  0.00     0.115 C 
ATOM     22  C   UNL     1     110.293 111.575  76.358  1.00  0.00     0.237 C 
ATOM     23  C   UNL     1     109.025 113.404  75.771  1.00  0.00     0.234 C 
ATOM     24  O   UNL     1     110.847 110.483  76.350  1.00  0.00    -0.274 OA
ATOM     25  N   UNL     1     109.248 112.047  75.573  1.00  0.00    -0.250 N 
ATOM     26  O   UNL     1     108.135 114.126  75.342  1.00  0.00    -0.274 OA
BRANCH  25  27
ATOM     27  C   UNL     1     108.496 111.233  74.665  1.00  0.00     0.055 A 
ATOM     28  C   UNL     1     107.405 110.488  75.109  1.00  0.00    -0.027 A 
ATOM     29  C   UNL     1     108.868 111.193  73.321  1.00  0.00     0.027 A 
ATOM     30  C   UNL     1     106.684 109.702  74.209  1.00  0.00     0.005 A 
ATOM     31  C   UNL     1     108.149 110.407  72.422  1.00  0.00     0.002 A 
ATOM     32  C   UNL     1     107.056 109.661  72.866  1.00  0.00     0.000 A 
ATOM     33  C   UNL     1     106.982 110.512  76.542  1.00  0.00     0.046 C 
ENDBRANCH  25  27
ENDBRANCH   5  20
TORSDOF 3
ENDMDL
MODEL 8
REMARK VINA RESULT:      -9.1      1.589      7.380
REMARK SMILES CC1=C[C@H]([C@@H]2CC(=O)N(c3ccccc3C)C2=O)C[C@@H]2C(=O)N(c3ccccc3C)C(=O)[C@H]12
REMARK SMILES IDX 22 1 32 2 23 3 20 4 4 5 19 6 33 7 2 8 3 9 21 10 31 11 1 12
REMARK SMILES IDX 24 13 29 14 25 15 28 16 26 17 27 18 30 19 5 20 6 21 17 22
REMARK SMILES IDX 7 23 18 24 9 25 8 26 10 27 15 28 11 29 14 30 12 31 13 32
REMARK SMILES IDX 16 33
REMARK H PARENT
ROOT
ATOM      1  O   UNL     1     112.130 115.632  77.947  1.00  0.00    -0.274 OA
ATOM      2  O   UNL     1     113.050 112.660  81.397  1.00  0.00    -0.273 OA
ATOM      3  N   UNL     1     113.001 114.143  79.562  1.00  0.00    -0.249 N 
ATOM      4  C   UNL     1     110.703 114.585  79.579  1.00  0.00     0.096 C 
ATOM      5  C   UNL     1     109.481 113.164  77.811  1.00  0.00     0.025 C 
ATOM      6  C   UNL     1     109.526 114.474  78.613  1.00  0.00     0.023 C 
ATOM      7  C   UNL     1     110.956 113.331  80.416  1.00  0.00     0.117 C 
ATOM      8  C   UNL     1     110.463 112.026  79.831  1.00  0.00    -0.064 C 
ATOM      9  C   UNL     1     109.815 111.968  78.655  1.00  0.00    -0.023 C 
ATOM     10  C   UNL     1     112.023 114.873  78.901  1.00  0.00     0.238 C 
ATOM     11  C   UNL     1     112.467 113.308  80.537  1.00  0.00     0.241 C 
ATOM     12  C   UNL     1     110.673 110.781  80.648  1.00  0.00     0.040 C 
ENDROOT
BRANCH   3  13
ATOM     13  C   UNL     1     114.402 114.246  79.283  1.00  0.00     0.055 A 
ATOM     14  C   UNL     1     115.010 113.404  78.352  1.00  0.00    -0.027 A 
ATOM     15  C   UNL     1     115.161 115.205  79.956  1.00  0.00     0.027 A 
ATOM     16  C   UNL     1     116.376 113.520  78.095  1.00  0.00     0.005 A 
ATOM     17  C   UNL     1     116.527 115.321  79.698  1.00  0.00     0.002 A 
ATOM     18  C   UNL     1     117.135 114.478  78.767  1.00  0.00     0.000 A 
ATOM     19  C   UNL     1     114.224 112.367  77.618  1.00  0.00     0.046 C 
ENDBRANCH   3  13
BRANCH   5  20
ATOM     20  C   UNL     1     110.367 113.191  76.565  1.00  0.00     0.096 C 
ATOM     21  C   UNL     1     110.023 114.335  75.628  1.00  0.00     0.115 C 
ATOM     22  C   UNL     1     110.113 111.964  75.726  1.00  0.00     0.237 C 
ATOM     23  C   UNL     1     109.123 113.711  74.600  1.00  0.00     0.234 C 
ATOM     24  O   UNL     1     110.585 110.870  76.007  1.00  0.00    -0.274 OA
ATOM     25  N   UNL     1     109.298 112.334  74.662  1.00  0.00    -0.250 N 
ATOM     26  O   UNL     1     108.397 114.379  73.877  1.00  0.00    -0.274 OA
BRANCH  25  27
ATOM     27  C   UNL     1     108.715 111.407  73.739  1.00  0.00     0.055 A 
ATOM     28  C   UNL     1     107.549 110.714  74.062  1.00  0.00    -0.027 A 
ATOM     29  C   UNL     1     109.330 111.202  72.504  1.00  0.00     0.027 A 
ATOM     30  C   UNL     1     106.996 109.816  73.148  1.00  0.00     0.005 A 
ATOM     31  C   UNL     1     108.778 110.304  71.591  1.00  0.00     0.002 A 
ATOM     32  C   UNL     1     107.611 109.610  71.913  1.00  0.00     0.000 A 
ATOM     33  C   UNL     1     106.869 110.914  75.377  1.00  0.00     0.046 C 
ENDBRANCH  25  27
ENDBRANCH   5  20
TORSDOF 3
ENDMDL
MODEL 9
REMARK VINA RESULT:      -9.0      2.666      7.186
REMARK SMILES CC1=C[C@H]([C@@H]2CC(=O)N(c3ccccc3C)C2=O)C[C@@H]2C(=O)N(c3ccccc3C)C(=O)[C@H]12
REMARK SMILES IDX 22 1 32 2 23 3 20 4 4 5 19 6 33 7 2 8 3 9 21 10 31 11 1 12
REMARK SMILES IDX 24 13 29 14 25 15 28 16 26 17 27 18 30 19 5 20 6 21 17 22
REMARK SMILES IDX 7 23 18 24 9 25 8 26 10 27 15 28 11 29 14 30 12 31 13 32
REMARK SMILES IDX 16 33
REMARK H PARENT
ROOT
ATOM      1  O   UNL     1     111.000 110.289  76.951  1.00  0.00    -0.274 OA
ATOM      2  O   UNL     1     111.717 114.678  78.293  1.00  0.00    -0.273 OA
ATOM      3  N   UNL     1     111.501 112.347  77.999  1.00  0.00    -0.249 N 
ATOM      4  C   UNL     1     110.608 112.387  75.836  1.00  0.00     0.096 C 
ATOM      5  C   UNL     1     108.047 112.104  75.893  1.00  0.00     0.025 C 
ATOM      6  C   UNL     1     109.358 111.878  75.122  1.00  0.00     0.023 C 
ATOM      7  C   UNL     1     110.470 113.786  76.438  1.00  0.00     0.117 C 
ATOM      8  C   UNL     1     109.065 114.233  76.772  1.00  0.00    -0.064 C 
ATOM      9  C   UNL     1     107.991 113.460  76.535  1.00  0.00    -0.023 C 
ATOM     10  C   UNL     1     111.052 111.512  76.986  1.00  0.00     0.238 C 
ATOM     11  C   UNL     1     111.301 113.690  77.702  1.00  0.00     0.241 C 
ATOM     12  C   UNL     1     108.897 115.616  77.338  1.00  0.00     0.040 C 
ENDROOT
BRANCH   3  13
ATOM     13  C   UNL     1     112.113 111.882  79.208  1.00  0.00     0.055 A 
ATOM     14  C   UNL     1     113.497 111.919  79.369  1.00  0.00    -0.027 A 
ATOM     15  C   UNL     1     111.305 111.388  80.233  1.00  0.00     0.027 A 
ATOM     16  C   UNL     1     114.074 111.461  80.554  1.00  0.00     0.005 A 
ATOM     17  C   UNL     1     111.882 110.930  81.418  1.00  0.00     0.002 A 
ATOM     18  C   UNL     1     113.267 110.967  81.578  1.00  0.00     0.000 A 
ATOM     19  C   UNL     1     114.388 112.441  78.289  1.00  0.00     0.046 C 
ENDBRANCH   3  13
BRANCH   5  20
ATOM     20  C   UNL     1     107.769 111.019  76.935  1.00  0.00     0.096 C 
ATOM     21  C   UNL     1     106.927 109.882  76.383  1.00  0.00     0.115 C 
ATOM     22  C   UNL     1     106.914 111.579  78.044  1.00  0.00     0.237 C 
ATOM     23  C   UNL     1     105.526 110.221  76.807  1.00  0.00     0.234 C 
ATOM     24  O   UNL     1     107.376 112.280  78.935  1.00  0.00    -0.274 OA
ATOM     25  N   UNL     1     105.608 111.151  77.837  1.00  0.00    -0.250 N 
ATOM     26  O   UNL     1     104.545 109.715  76.281  1.00  0.00    -0.274 OA
BRANCH  25  27
ATOM     27  C   UNL     1     104.483 111.609  78.597  1.00  0.00     0.055 A 
ATOM     28  C   UNL     1     103.607 112.559  78.074  1.00  0.00    -0.027 A 
ATOM     29  C   UNL     1     104.272 111.092  79.875  1.00  0.00     0.027 A 
ATOM     30  C   UNL     1     102.517 112.992  78.830  1.00  0.00     0.005 A 
ATOM     31  C   UNL     1     103.183 111.526  80.631  1.00  0.00     0.002 A 
ATOM     32  C   UNL     1     102.306 112.476  80.108  1.00  0.00     0.000 A 
ATOM     33  C   UNL     1     103.808 113.129  76.708  1.00  0.00     0.046 C 
ENDBRANCH  25  27
ENDBRANCH   5  20
TORSDOF 3
ENDMDL
MODEL 10
REMARK VINA RESULT:      -8.6      2.371      7.311
REMARK SMILES CC1=C[C@H]([C@@H]2CC(=O)N(c3ccccc3C)C2=O)C[C@@H]2C(=O)N(c3ccccc3C)C(=O)[C@H]12
REMARK SMILES IDX 22 1 32 2 23 3 20 4 4 5 19 6 33 7 2 8 3 9 21 10 31 11 1 12
REMARK SMILES IDX 24 13 29 14 25 15 28 16 26 17 27 18 30 19 5 20 6 21 17 22
REMARK SMILES IDX 7 23 18 24 9 25 8 26 10 27 15 28 11 29 14 30 12 31 13 32
REMARK SMILES IDX 16 33
REMARK H PARENT
ROOT
ATOM      1  O   UNL     1     112.001 112.727  77.157  1.00  0.00    -0.274 OA
ATOM      2  O   UNL     1     111.244 114.519  81.375  1.00  0.00    -0.273 OA
ATOM      3  N   UNL     1     111.735 113.254  79.445  1.00  0.00    -0.249 N 
ATOM      4  C   UNL     1     111.221 114.895  77.857  1.00  0.00     0.096 C 
ATOM      5  C   UNL     1     108.866 114.523  76.881  1.00  0.00     0.025 C 
ATOM      6  C   UNL     1     110.292 115.049  76.656  1.00  0.00     0.023 C 
ATOM      7  C   UNL     1     110.605 115.311  79.193  1.00  0.00     0.117 C 
ATOM      8  C   UNL     1     109.096 115.255  79.279  1.00  0.00    -0.064 C 
ATOM      9  C   UNL     1     108.332 114.885  78.236  1.00  0.00    -0.023 C 
ATOM     10  C   UNL     1     111.704 113.479  78.076  1.00  0.00     0.238 C 
ATOM     11  C   UNL     1     111.218 114.323  80.167  1.00  0.00     0.241 C 
ATOM     12  C   UNL     1     108.462 115.687  80.572  1.00  0.00     0.040 C 
ENDROOT
BRANCH   3  13
ATOM     13  C   UNL     1     112.253 112.063  80.049  1.00  0.00     0.055 A 
ATOM     14  C   UNL     1     113.628 111.864  80.176  1.00  0.00    -0.027 A 
ATOM     15  C   UNL     1     111.363 111.094  80.515  1.00  0.00     0.027 A 
ATOM     16  C   UNL     1     114.113 110.697  80.766  1.00  0.00     0.005 A 
ATOM     17  C   UNL     1     111.848 109.927  81.105  1.00  0.00     0.002 A 
ATOM     18  C   UNL     1     113.223 109.729  81.232  1.00  0.00     0.000 A 
ATOM     19  C   UNL     1     114.604 112.884  79.686  1.00  0.00     0.046 C 
ENDBRANCH   3  13
BRANCH   5  20
ATOM     20  C   UNL     1     108.739 113.016  76.654  1.00  0.00     0.096 C 
ATOM     21  C   UNL     1     108.030 112.678  75.354  1.00  0.00     0.115 C 
ATOM     22  C   UNL     1     107.845 112.410  77.707  1.00  0.00     0.237 C 
ATOM     23  C   UNL     1     106.607 112.426  75.766  1.00  0.00     0.234 C 
ATOM     24  O   UNL     1     108.237 112.180  78.844  1.00  0.00    -0.274 OA
ATOM     25  N   UNL     1     106.597 112.194  77.136  1.00  0.00    -0.250 N 
ATOM     26  O   UNL     1     105.684 112.443  74.964  1.00  0.00    -0.274 OA
BRANCH  25  27
ATOM     27  C   UNL     1     105.440 111.777  77.871  1.00  0.00     0.055 A 
ATOM     28  C   UNL     1     104.838 110.546  77.619  1.00  0.00    -0.027 A 
ATOM     29  C   UNL     1     104.917 112.622  78.850  1.00  0.00     0.027 A 
ATOM     30  C   UNL     1     103.712 110.157  78.346  1.00  0.00     0.005 A 
ATOM     31  C   UNL     1     103.792 112.235  79.577  1.00  0.00     0.002 A 
ATOM     32  C   UNL     1     103.189 111.002  79.324  1.00  0.00     0.000 A 
ATOM     33  C   UNL     1     105.376 109.620  76.577  1.00  0.00     0.046 C 
ENDBRANCH  25  27
ENDBRANCH   5  20
TORSDOF 3
ENDMDL
MODEL 11
REMARK VINA RESULT:      -8.2      1.843      2.708
REMARK SMILES CC1=C[C@H]([C@@H]2CC(=O)N(c3ccccc3C)C2=O)C[C@@H]2C(=O)N(c3ccccc3C)C(=O)[C@H]12
REMARK SMILES IDX 22 1 32 2 23 3 20 4 4 5 19 6 33 7 2 8 3 9 21 10 31 11 1 12
REMARK SMILES IDX 24 13 29 14 25 15 28 16 26 17 27 18 30 19 5 20 6 21 17 22
REMARK SMILES IDX 7 23 18 24 9 25 8 26 10 27 15 28 11 29 14 30 12 31 13 32
REMARK SMILES IDX 16 33
REMARK H PARENT
ROOT
ATOM      1  O   UNL     1     110.696 111.022  77.587  1.00  0.00    -0.274 OA
ATOM      2  O   UNL     1     108.882 114.617  75.271  1.00  0.00    -0.273 OA
ATOM      3  N   UNL     1     109.860 112.621  76.059  1.00  0.00    -0.249 N 
ATOM      4  C   UNL     1     109.805 113.127  78.344  1.00  0.00     0.096 C 
ATOM      5  C   UNL     1     112.101 113.972  79.154  1.00  0.00     0.025 C 
ATOM      6  C   UNL     1     110.797 113.235  79.499  1.00  0.00     0.023 C 
ATOM      7  C   UNL     1     109.601 114.424  77.560  1.00  0.00     0.117 C 
ATOM      8  C   UNL     1     110.738 115.419  77.607  1.00  0.00    -0.064 C 
ATOM      9  C   UNL     1     111.859 115.194  78.315  1.00  0.00    -0.023 C 
ATOM     10  C   UNL     1     110.191 112.101  77.303  1.00  0.00     0.238 C 
ATOM     11  C   UNL     1     109.400 113.929  76.141  1.00  0.00     0.241 C 
ATOM     12  C   UNL     1     110.552 116.716  76.869  1.00  0.00     0.040 C 
ENDROOT
BRANCH   3  13
ATOM     13  C   UNL     1     109.967 111.890  74.832  1.00  0.00     0.055 A 
ATOM     14  C   UNL     1     108.848 111.288  74.258  1.00  0.00    -0.027 A 
ATOM     15  C   UNL     1     111.211 111.784  74.210  1.00  0.00     0.027 A 
ATOM     16  C   UNL     1     108.972 110.581  73.062  1.00  0.00     0.005 A 
ATOM     17  C   UNL     1     111.336 111.076  73.014  1.00  0.00     0.002 A 
ATOM     18  C   UNL     1     110.216 110.474  72.440  1.00  0.00     0.000 A 
ATOM     19  C   UNL     1     107.503 111.384  74.902  1.00  0.00     0.046 C 
ENDBRANCH   3  13
BRANCH   5  20
ATOM     20  C   UNL     1     113.139 113.073  78.482  1.00  0.00     0.096 C 
ATOM     21  C   UNL     1     113.291 111.733  79.180  1.00  0.00     0.115 C 
ATOM     22  C   UNL     1     114.511 113.688  78.607  1.00  0.00     0.237 C 
ATOM     23  C   UNL     1     114.481 111.918  80.078  1.00  0.00     0.234 C 
ATOM     24  O   UNL     1     114.881 114.609  77.890  1.00  0.00    -0.274 OA
ATOM     25  N   UNL     1     115.186 113.026  79.625  1.00  0.00    -0.250 N 
ATOM     26  O   UNL     1     114.709 111.172  81.021  1.00  0.00    -0.274 OA
BRANCH  25  27
ATOM     27  C   UNL     1     116.459 113.434  80.141  1.00  0.00     0.055 A 
ATOM     28  C   UNL     1     116.571 114.558  80.958  1.00  0.00    -0.027 A 
ATOM     29  C   UNL     1     117.593 112.692  79.815  1.00  0.00     0.027 A 
ATOM     30  C   UNL     1     117.820 114.939  81.452  1.00  0.00     0.005 A 
ATOM     31  C   UNL     1     118.841 113.073  80.307  1.00  0.00     0.002 A 
ATOM     32  C   UNL     1     118.954 114.197  81.125  1.00  0.00     0.000 A 
ATOM     33  C   UNL     1     115.373 115.372  81.325  1.00  0.00     0.046 C 
ENDBRANCH  25  27
ENDBRANCH   5  20
TORSDOF 3
ENDMDL
MODEL 12
REMARK VINA RESULT:      -8.0      2.018      2.852
REMARK SMILES CC1=C[C@H]([C@@H]2CC(=O)N(c3ccccc3C)C2=O)C[C@@H]2C(=O)N(c3ccccc3C)C(=O)[C@H]12
REMARK SMILES IDX 22 1 32 2 23 3 20 4 4 5 19 6 33 7 2 8 3 9 21 10 31 11 1 12
REMARK SMILES IDX 24 13 29 14 25 15 28 16 26 17 27 18 30 19 5 20 6 21 17 22
REMARK SMILES IDX 7 23 18 24 9 25 8 26 10 27 15 28 11 29 14 30 12 31 13 32
REMARK SMILES IDX 16 33
REMARK H PARENT
ROOT
ATOM      1  O   UNL     1     110.332 110.161  77.280  1.00  0.00    -0.274 OA
ATOM      2  O   UNL     1     107.635 113.876  76.564  1.00  0.00    -0.273 OA
ATOM      3  N   UNL     1     109.090 112.019  76.510  1.00  0.00    -0.249 N 
ATOM      4  C   UNL     1     108.982 111.471  78.783  1.00  0.00     0.096 C 
ATOM      5  C   UNL     1     111.029 112.393  80.048  1.00  0.00     0.025 C 
ATOM      6  C   UNL     1     109.952 111.300  79.949  1.00  0.00     0.023 C 
ATOM      7  C   UNL     1     108.448 112.893  78.606  1.00  0.00     0.117 C 
ATOM      8  C   UNL     1     109.313 114.005  79.156  1.00  0.00    -0.064 C 
ATOM      9  C   UNL     1     110.474 113.764  79.788  1.00  0.00    -0.023 C 
ATOM     10  C   UNL     1     109.573 111.109  77.440  1.00  0.00     0.238 C 
ATOM     11  C   UNL     1     108.330 113.021  77.100  1.00  0.00     0.241 C 
ATOM     12  C   UNL     1     108.797 115.411  79.021  1.00  0.00     0.040 C 
ENDROOT
BRANCH   3  13
ATOM     13  C   UNL     1     109.334 111.929  75.101  1.00  0.00     0.055 A 
ATOM     14  C   UNL     1     108.472 111.214  74.270  1.00  0.00    -0.027 A 
ATOM     15  C   UNL     1     110.450 112.570  74.562  1.00  0.00     0.027 A 
ATOM     16  C   UNL     1     108.726 111.139  72.901  1.00  0.00     0.005 A 
ATOM     17  C   UNL     1     110.704 112.494  73.193  1.00  0.00     0.002 A 
ATOM     18  C   UNL     1     109.842 111.779  72.362  1.00  0.00     0.000 A 
ATOM     19  C   UNL     1     107.269 110.518  74.819  1.00  0.00     0.046 C 
ENDBRANCH   3  13
BRANCH   5  20
ATOM     20  C   UNL     1     112.233 112.134  79.143  1.00  0.00     0.096 C 
ATOM     21  C   UNL     1     113.532 112.005  79.920  1.00  0.00     0.115 C 
ATOM     22  C   UNL     1     112.476 113.328  78.254  1.00  0.00     0.237 C 
ATOM     23  C   UNL     1     114.149 113.372  79.835  1.00  0.00     0.234 C 
ATOM     24  O   UNL     1     111.803 113.547  77.255  1.00  0.00    -0.274 OA
ATOM     25  N   UNL     1     113.539 114.049  78.786  1.00  0.00    -0.250 N 
ATOM     26  O   UNL     1     115.030 113.738  80.600  1.00  0.00    -0.274 OA
BRANCH  25  27
ATOM     27  C   UNL     1     113.958 115.331  78.305  1.00  0.00     0.055 A 
ATOM     28  C   UNL     1     115.286 115.561  77.946  1.00  0.00    -0.027 A 
ATOM     29  C   UNL     1     113.019 116.357  78.200  1.00  0.00     0.027 A 
ATOM     30  C   UNL     1     115.675 116.818  77.480  1.00  0.00     0.005 A 
ATOM     31  C   UNL     1     113.407 117.613  77.734  1.00  0.00     0.002 A 
ATOM     32  C   UNL     1     114.735 117.843  77.375  1.00  0.00     0.000 A 
ATOM     33  C   UNL     1     116.314 114.482  78.049  1.00  0.00     0.046 C 
ENDBRANCH  25  27
ENDBRANCH   5  20
TORSDOF 3
ENDMDL
MODEL 13
REMARK VINA RESULT:      -7.7      2.004      7.453
REMARK SMILES CC1=C[C@H]([C@@H]2CC(=O)N(c3ccccc3C)C2=O)C[C@@H]2C(=O)N(c3ccccc3C)C(=O)[C@H]12
REMARK SMILES IDX 22 1 32 2 23 3 20 4 4 5 19 6 33 7 2 8 3 9 21 10 31 11 1 12
REMARK SMILES IDX 24 13 29 14 25 15 28 16 26 17 27 18 30 19 5 20 6 21 17 22
REMARK SMILES IDX 7 23 18 24 9 25 8 26 10 27 15 28 11 29 14 30 12 31 13 32
REMARK SMILES IDX 16 33
REMARK H PARENT
ROOT
ATOM      1  O   UNL     1     110.714 115.708  76.872  1.00  0.00    -0.274 OA
ATOM      2  O   UNL     1     112.534 114.557  80.989  1.00  0.00    -0.273 OA
ATOM      3  N   UNL     1     112.008 115.259  78.799  1.00  0.00    -0.249 N 
ATOM      4  C   UNL     1     109.727 114.735  78.842  1.00  0.00     0.096 C 
ATOM      5  C   UNL     1     109.280 112.480  77.680  1.00  0.00     0.025 C 
ATOM      6  C   UNL     1     108.752 113.877  78.040  1.00  0.00     0.023 C 
ATOM      7  C   UNL     1     110.408 114.007  80.001  1.00  0.00     0.117 C 
ATOM      8  C   UNL     1     110.511 112.504  79.876  1.00  0.00    -0.064 C 
ATOM      9  C   UNL     1     110.012 111.836  78.822  1.00  0.00    -0.023 C 
ATOM     10  C   UNL     1     110.861 115.300  78.017  1.00  0.00     0.238 C 
ATOM     11  C   UNL     1     111.793 114.624  80.016  1.00  0.00     0.241 C 
ATOM     12  C   UNL     1     111.151 111.759  81.016  1.00  0.00     0.040 C 
ENDROOT
BRANCH   3  13
ATOM     13  C   UNL     1     113.266 115.819  78.404  1.00  0.00     0.055 A 
ATOM     14  C   UNL     1     114.433 115.056  78.445  1.00  0.00    -0.027 A 
ATOM     15  C   UNL     1     113.316 117.145  77.974  1.00  0.00     0.027 A 
ATOM     16  C   UNL     1     115.649 115.619  78.057  1.00  0.00     0.005 A 
ATOM     17  C   UNL     1     114.532 117.708  77.585  1.00  0.00     0.002 A 
ATOM     18  C   UNL     1     115.698 116.945  77.627  1.00  0.00     0.000 A 
ATOM     19  C   UNL     1     114.411 113.633  78.903  1.00  0.00     0.046 C 
ENDBRANCH   3  13
BRANCH   5  20
ATOM     20  C   UNL     1     110.155 112.473  76.426  1.00  0.00     0.096 C 
ATOM     21  C   UNL     1     109.868 113.647  75.506  1.00  0.00     0.115 C 
ATOM     22  C   UNL     1     109.825 111.274  75.573  1.00  0.00     0.237 C 
ATOM     23  C   UNL     1     108.924 113.087  74.479  1.00  0.00     0.234 C 
ATOM     24  O   UNL     1     110.238 110.151  75.837  1.00  0.00    -0.274 OA
ATOM     25  N   UNL     1     109.023 111.702  74.523  1.00  0.00    -0.250 N 
ATOM     26  O   UNL     1     108.230 113.804  73.772  1.00  0.00    -0.274 OA
BRANCH  25  27
ATOM     27  C   UNL     1     108.380 110.821  73.594  1.00  0.00     0.055 A 
ATOM     28  C   UNL     1     108.880 110.655  72.303  1.00  0.00    -0.027 A 
ATOM     29  C   UNL     1     107.240 110.126  73.995  1.00  0.00     0.027 A 
ATOM     30  C   UNL     1     108.240 109.792  71.413  1.00  0.00     0.005 A 
ATOM     31  C   UNL     1     106.599 109.264  73.106  1.00  0.00     0.002 A 
ATOM     32  C   UNL     1     107.099 109.097  71.814  1.00  0.00     0.000 A 
ATOM     33  C   UNL     1     110.101 111.386  71.845  1.00  0.00     0.046 C 
ENDBRANCH  25  27
ENDBRANCH   5  20
TORSDOF 3
ENDMDL
MODEL 14
REMARK VINA RESULT:      -7.5      1.994      4.813
REMARK SMILES CC1=C[C@H]([C@@H]2CC(=O)N(c3ccccc3C)C2=O)C[C@@H]2C(=O)N(c3ccccc3C)C(=O)[C@H]12
REMARK SMILES IDX 22 1 32 2 23 3 20 4 4 5 19 6 33 7 2 8 3 9 21 10 31 11 1 12
REMARK SMILES IDX 24 13 29 14 25 15 28 16 26 17 27 18 30 19 5 20 6 21 17 22
REMARK SMILES IDX 7 23 18 24 9 25 8 26 10 27 15 28 11 29 14 30 12 31 13 32
REMARK SMILES IDX 16 33
REMARK H PARENT
ROOT
ATOM      1  O   UNL     1     107.999 114.374  76.594  1.00  0.00    -0.274 OA
ATOM      2  O   UNL     1     107.270 109.887  75.638  1.00  0.00    -0.273 OA
ATOM      3  N   UNL     1     107.335 112.113  76.417  1.00  0.00    -0.249 N 
ATOM      4  C   UNL     1     109.044 112.885  75.017  1.00  0.00     0.096 C 
ATOM      5  C   UNL     1     111.302 112.923  76.257  1.00  0.00     0.025 C 
ATOM      6  C   UNL     1     110.413 113.542  75.166  1.00  0.00     0.023 C 
ATOM      7  C   UNL     1     109.071 111.356  75.008  1.00  0.00     0.117 C 
ATOM      8  C   UNL     1     110.249 110.706  75.697  1.00  0.00    -0.064 C 
ATOM      9  C   UNL     1     111.234 111.423  76.264  1.00  0.00    -0.023 C 
ATOM     10  C   UNL     1     108.070 113.250  76.114  1.00  0.00     0.238 C 
ATOM     11  C   UNL     1     107.785 110.995  75.726  1.00  0.00     0.241 C 
ATOM     12  C   UNL     1     110.316 109.203  75.678  1.00  0.00     0.040 C 
ENDROOT
BRANCH   3  13
ATOM     13  C   UNL     1     106.229 112.093  77.329  1.00  0.00     0.055 A 
ATOM     14  C   UNL     1     106.425 111.834  78.685  1.00  0.00    -0.027 A 
ATOM     15  C   UNL     1     104.944 112.339  76.844  1.00  0.00     0.027 A 
ATOM     16  C   UNL     1     105.336 111.819  79.556  1.00  0.00     0.005 A 
ATOM     17  C   UNL     1     103.855 112.324  77.716  1.00  0.00     0.002 A 
ATOM     18  C   UNL     1     104.051 112.064  79.072  1.00  0.00     0.000 A 
ATOM     19  C   UNL     1     107.790 111.566  79.232  1.00  0.00     0.046 C 
ENDBRANCH   3  13
BRANCH   5  20
ATOM     20  C   UNL     1     111.003 113.468  77.654  1.00  0.00     0.096 C 
ATOM     21  C   UNL     1     110.946 114.985  77.691  1.00  0.00     0.115 C 
ATOM     22  C   UNL     1     112.141 113.140  78.589  1.00  0.00     0.237 C 
ATOM     23  C   UNL     1     112.314 115.394  78.157  1.00  0.00     0.234 C 
ATOM     24  O   UNL     1     112.283 112.027  79.080  1.00  0.00    -0.274 OA
ATOM     25  N   UNL     1     112.911 114.286  78.745  1.00  0.00    -0.250 N 
ATOM     26  O   UNL     1     112.744 116.529  78.002  1.00  0.00    -0.274 OA
BRANCH  25  27
ATOM     27  C   UNL     1     114.166 114.320  79.435  1.00  0.00     0.055 A 
ATOM     28  C   UNL     1     115.265 113.608  78.957  1.00  0.00    -0.027 A 
ATOM     29  C   UNL     1     114.280 115.080  80.599  1.00  0.00     0.027 A 
ATOM     30  C   UNL     1     116.479 113.654  79.642  1.00  0.00     0.005 A 
ATOM     31  C   UNL     1     115.493 115.126  81.285  1.00  0.00     0.002 A 
ATOM     32  C   UNL     1     116.593 114.414  80.807  1.00  0.00     0.000 A 
ATOM     33  C   UNL     1     115.172 112.786  77.712  1.00  0.00     0.046 C 
ENDBRANCH  25  27
ENDBRANCH   5  20
TORSDOF 3
ENDMDL
MODEL 15
REMARK VINA RESULT:      -7.4      1.678      6.918
REMARK SMILES CC1=C[C@H]([C@@H]2CC(=O)N(c3ccccc3C)C2=O)C[C@@H]2C(=O)N(c3ccccc3C)C(=O)[C@H]12
REMARK SMILES IDX 22 1 32 2 23 3 20 4 4 5 19 6 33 7 2 8 3 9 21 10 31 11 1 12
REMARK SMILES IDX 24 13 29 14 25 15 28 16 26 17 27 18 30 19 5 20 6 21 17 22
REMARK SMILES IDX 7 23 18 24 9 25 8 26 10 27 15 28 11 29 14 30 12 31 13 32
REMARK SMILES IDX 16 33
REMARK H PARENT
ROOT
ATOM      1  O   UNL     1     112.623 115.474  79.400  1.00  0.00    -0.274 OA
ATOM      2  O   UNL     1     114.154 111.327  80.830  1.00  0.00    -0.273 OA
ATOM      3  N   UNL     1     113.753 113.460  79.903  1.00  0.00    -0.249 N 
ATOM      4  C   UNL     1     111.597 113.772  80.759  1.00  0.00     0.096 C 
ATOM      5  C   UNL     1     109.814 113.225  78.982  1.00  0.00     0.025 C 
ATOM      6  C   UNL     1     110.198 114.055  80.217  1.00  0.00     0.023 C 
ATOM      7  C   UNL     1     111.947 112.288  80.870  1.00  0.00     0.117 C 
ATOM      8  C   UNL     1     111.192 111.354  79.950  1.00  0.00    -0.064 C 
ATOM      9  C   UNL     1     110.248 111.793  79.100  1.00  0.00    -0.023 C 
ATOM     10  C   UNL     1     112.706 114.371  79.925  1.00  0.00     0.238 C 
ATOM     11  C   UNL     1     113.425 112.266  80.534  1.00  0.00     0.241 C 
ATOM     12  C   UNL     1     111.495 109.885  80.059  1.00  0.00     0.040 C 
ENDROOT
BRANCH   3  13
ATOM     13  C   UNL     1     115.030 113.721  79.309  1.00  0.00     0.055 A 
ATOM     14  C   UNL     1     115.946 114.572  79.928  1.00  0.00    -0.027 A 
ATOM     15  C   UNL     1     115.354 113.113  78.096  1.00  0.00     0.027 A 
ATOM     16  C   UNL     1     117.184 114.815  79.334  1.00  0.00     0.005 A 
ATOM     17  C   UNL     1     116.593 113.355  77.502  1.00  0.00     0.002 A 
ATOM     18  C   UNL     1     117.508 114.206  78.121  1.00  0.00     0.000 A 
ATOM     19  C   UNL     1     115.626 115.239  81.227  1.00  0.00     0.046 C 
ENDBRANCH   3  13
BRANCH   5  20
ATOM     20  C   UNL     1     110.330 113.823  77.672  1.00  0.00     0.096 C 
ATOM     21  C   UNL     1     109.227 114.027  76.648  1.00  0.00     0.115 C 
ATOM     22  C   UNL     1     111.260 112.850  76.993  1.00  0.00     0.237 C 
ATOM     23  C   UNL     1     109.309 112.811  75.770  1.00  0.00     0.234 C 
ATOM     24  O   UNL     1     112.420 112.696  77.351  1.00  0.00    -0.274 OA
ATOM     25  N   UNL     1     110.557 112.231  75.966  1.00  0.00    -0.250 N 
ATOM     26  O   UNL     1     108.389 112.469  75.042  1.00  0.00    -0.274 OA
BRANCH  25  27
ATOM     27  C   UNL     1     111.061 111.132  75.198  1.00  0.00     0.055 A 
ATOM     28  C   UNL     1     111.304 111.265  73.832  1.00  0.00    -0.027 A 
ATOM     29  C   UNL     1     111.307 109.916  75.835  1.00  0.00     0.027 A 
ATOM     30  C   UNL     1     111.795 110.183  73.101  1.00  0.00     0.005 A 
ATOM     31  C   UNL     1     111.797 108.833  75.105  1.00  0.00     0.002 A 
ATOM     32  C   UNL     1     112.041 108.967  73.738  1.00  0.00     0.000 A 
ATOM     33  C   UNL     1     111.050 112.556  73.123  1.00  0.00     0.046 C 
ENDBRANCH  25  27
ENDBRANCH   5  20
TORSDOF 3
ENDMDL
