MODEL 1
REMARK VINA RESULT:     -11.1      0.000      0.000
REMARK SMILES Cc1cc(NC(=O)c2ccco2)sc1C(=O)Nc1cccc([C@H]2NOC(=O)N2)c1
REMARK SMILES IDX 16 1 17 2 15 3 14 5 13 6 4 7 2 8 3 9 1 10 5 11 6 12 7 13
REMARK SMILES IDX 8 15 12 16 9 17 11 18 10 19 18 20 29 21 19 22 22 23 20 24
REMARK SMILES IDX 21 25 23 26 28 27 24 28 26 29 25 30 27 31
REMARK H PARENT 17 4 5 14 28 32 24 33
ROOT
ATOM      1  O   UNL     1     109.706 113.504  76.753  1.00  0.00    -0.268 OA
ATOM      2  N   UNL     1     108.800 112.201  78.486  1.00  0.00    -0.321 N 
ATOM      3  C   UNL     1     109.690 113.122  77.918  1.00  0.00     0.266 C 
ATOM      4  H   UNL     1     108.924 111.997  79.476  1.00  0.00     0.170 HD
ENDROOT
BRANCH   3   5
ATOM      5  C   UNL     1     110.690 113.701  78.852  1.00  0.00     0.097 A 
ATOM      6  S   UNL     1     112.300 113.119  78.797  1.00  0.00    -0.112 S 
ATOM      7  C   UNL     1     112.783 114.180  80.051  1.00  0.00     0.096 A 
ATOM      8  C   UNL     1     110.527 114.682  79.805  1.00  0.00    -0.025 A 
ATOM      9  C   UNL     1     111.740 114.960  80.500  1.00  0.00     0.042 A 
ATOM     10  C   UNL     1     109.247 115.376  80.085  1.00  0.00     0.046 C 
BRANCH   7  11
ATOM     11  N   UNL     1     114.093 114.128  80.441  1.00  0.00    -0.311 N 
ATOM     12  C   UNL     1     115.211 114.815  79.901  1.00  0.00     0.291 C 
ATOM     13  O   UNL     1     115.188 115.600  78.960  1.00  0.00    -0.265 OA
ATOM     14  H   UNL     1     114.269 113.518  81.237  1.00  0.00     0.171 HD
BRANCH  12  15
ATOM     15  C   UNL     1     116.517 114.569  80.566  1.00  0.00     0.191 A 
ATOM     16  O   UNL     1     117.153 113.397  80.305  1.00  0.00    -0.459 OA
ATOM     17  C   UNL     1     117.253 115.333  81.442  1.00  0.00     0.056 A 
ATOM     18  C   UNL     1     118.308 113.413  81.020  1.00  0.00     0.196 A 
ATOM     19  C   UNL     1     118.417 114.582  81.737  1.00  0.00     0.043 A 
ENDBRANCH  12  15
ENDBRANCH   7  11
ENDBRANCH   3   5
BRANCH   2  20
ATOM     20  C   UNL     1     107.751 111.521  77.864  1.00  0.00     0.041 A 
ATOM     21  C   UNL     1     106.431 111.808  78.211  1.00  0.00     0.033 A 
ATOM     22  C   UNL     1     108.024 110.557  76.895  1.00  0.00     0.026 A 
ATOM     23  C   UNL     1     105.384 111.129  77.590  1.00  0.00    -0.006 A 
ATOM     24  C   UNL     1     106.976 109.878  76.273  1.00  0.00     0.003 A 
ATOM     25  C   UNL     1     105.656 110.163  76.620  1.00  0.00     0.007 A 
BRANCH  23  26
ATOM     26  C   UNL     1     103.953 111.439  77.966  1.00  0.00     0.221 C 
ATOM     27  N   UNL     1     103.792 111.716  79.351  1.00  0.00    -0.298 N 
ATOM     28  N   UNL     1     103.052 110.314  77.705  1.00  0.00    -0.124 NA
ATOM     29  C   UNL     1     102.999 110.785  79.959  1.00  0.00     0.427 C 
ATOM     30  O   UNL     1     102.572 109.883  79.029  1.00  0.00    -0.351 OA
ATOM     31  O   UNL     1     102.704 110.736  81.145  1.00  0.00    -0.223 OA
ATOM     32  H   UNL     1     104.228 112.495  79.836  1.00  0.00     0.169 HD
ATOM     33  H   UNL     1     102.175 110.665  77.320  1.00  0.00     0.172 HD
ENDBRANCH  23  26
ENDBRANCH   2  20
TORSDOF 5
ENDMDL
MODEL 2
REMARK VINA RESULT:     -10.5      1.008      1.176
REMARK SMILES Cc1cc(NC(=O)c2ccco2)sc1C(=O)Nc1cccc([C@H]2NOC(=O)N2)c1
REMARK SMILES IDX 16 1 17 2 15 3 14 5 13 6 4 7 2 8 3 9 1 10 5 11 6 12 7 13
REMARK SMILES IDX 8 15 12 16 9 17 11 18 10 19 18 20 29 21 19 22 22 23 20 24
REMARK SMILES IDX 21 25 23 26 28 27 24 28 26 29 25 30 27 31
REMARK H PARENT 17 4 5 14 28 32 24 33
ROOT
ATOM      1  O   UNL     1     109.297 113.783  76.878  1.00  0.00    -0.268 OA
ATOM      2  N   UNL     1     108.748 112.118  78.444  1.00  0.00    -0.321 N 
ATOM      3  C   UNL     1     109.451 113.229  77.961  1.00  0.00     0.266 C 
ATOM      4  H   UNL     1     109.000 111.785  79.372  1.00  0.00     0.170 HD
ENDROOT
BRANCH   3   5
ATOM      5  C   UNL     1     110.466 113.794  78.890  1.00  0.00     0.097 A 
ATOM      6  S   UNL     1     112.072 113.207  78.807  1.00  0.00    -0.112 S 
ATOM      7  C   UNL     1     112.575 114.250  80.068  1.00  0.00     0.096 A 
ATOM      8  C   UNL     1     110.317 114.763  79.857  1.00  0.00    -0.025 A 
ATOM      9  C   UNL     1     111.540 115.028  80.540  1.00  0.00     0.042 A 
ATOM     10  C   UNL     1     109.044 115.458  80.162  1.00  0.00     0.046 C 
BRANCH   7  11
ATOM     11  N   UNL     1     113.889 114.190  80.441  1.00  0.00    -0.311 N 
ATOM     12  C   UNL     1     115.013 114.825  79.851  1.00  0.00     0.291 C 
ATOM     13  O   UNL     1     114.991 115.563  78.873  1.00  0.00    -0.265 OA
ATOM     14  H   UNL     1     114.065 113.616  81.263  1.00  0.00     0.171 HD
BRANCH  12  15
ATOM     15  C   UNL     1     116.324 114.583  80.508  1.00  0.00     0.191 A 
ATOM     16  O   UNL     1     116.995 113.446  80.189  1.00  0.00    -0.459 OA
ATOM     17  C   UNL     1     117.034 115.322  81.426  1.00  0.00     0.056 A 
ATOM     18  C   UNL     1     118.147 113.459  80.909  1.00  0.00     0.196 A 
ATOM     19  C   UNL     1     118.219 114.591  81.687  1.00  0.00     0.043 A 
ENDBRANCH  12  15
ENDBRANCH   7  11
ENDBRANCH   3   5
BRANCH   2  20
ATOM     20  C   UNL     1     107.731 111.402  77.810  1.00  0.00     0.041 A 
ATOM     21  C   UNL     1     106.424 111.471  78.292  1.00  0.00     0.033 A 
ATOM     22  C   UNL     1     108.023 110.618  76.694  1.00  0.00     0.026 A 
ATOM     23  C   UNL     1     105.409 110.754  77.658  1.00  0.00    -0.006 A 
ATOM     24  C   UNL     1     107.007 109.903  76.059  1.00  0.00     0.003 A 
ATOM     25  C   UNL     1     105.700 109.970  76.541  1.00  0.00     0.007 A 
BRANCH  23  26
ATOM     26  C   UNL     1     103.993 110.828  78.180  1.00  0.00     0.221 C 
ATOM     27  N   UNL     1     103.267 111.934  77.658  1.00  0.00    -0.298 N 
ATOM     28  N   UNL     1     103.944 111.005  79.633  1.00  0.00    -0.124 NA
ATOM     29  C   UNL     1     102.918 112.814  78.643  1.00  0.00     0.427 C 
ATOM     30  O   UNL     1     103.350 112.335  79.846  1.00  0.00    -0.351 OA
ATOM     31  O   UNL     1     102.320 113.872  78.503  1.00  0.00    -0.223 OA
ATOM     32  H   UNL     1     103.052 112.068  76.675  1.00  0.00     0.169 HD
ATOM     33  H   UNL     1     103.195 110.429  80.019  1.00  0.00     0.172 HD
ENDBRANCH  23  26
ENDBRANCH   2  20
TORSDOF 5
ENDMDL
MODEL 3
REMARK VINA RESULT:      -9.7      2.992      4.181
REMARK SMILES Cc1cc(NC(=O)c2ccco2)sc1C(=O)Nc1cccc([C@H]2NOC(=O)N2)c1
REMARK SMILES IDX 16 1 17 2 15 3 14 5 13 6 4 7 2 8 3 9 1 10 5 11 6 12 7 13
REMARK SMILES IDX 8 15 12 16 9 17 11 18 10 19 18 20 29 21 19 22 22 23 20 24
REMARK SMILES IDX 21 25 23 26 28 27 24 28 26 29 25 30 27 31
REMARK H PARENT 17 4 5 14 28 32 24 33
ROOT
ATOM      1  O   UNL     1     108.744 114.388  76.982  1.00  0.00    -0.268 OA
ATOM      2  N   UNL     1     109.251 112.137  77.429  1.00  0.00    -0.321 N 
ATOM      3  C   UNL     1     109.372 113.525  77.584  1.00  0.00     0.266 C 
ATOM      4  H   UNL     1     109.848 111.558  78.015  1.00  0.00     0.170 HD
ENDROOT
BRANCH   3   5
ATOM      5  C   UNL     1     110.350 113.968  78.611  1.00  0.00     0.097 A 
ATOM      6  S   UNL     1     111.974 113.438  78.484  1.00  0.00    -0.112 S 
ATOM      7  C   UNL     1     112.420 114.294  79.898  1.00  0.00     0.096 A 
ATOM      8  C   UNL     1     110.155 114.779  79.707  1.00  0.00    -0.025 A 
ATOM      9  C   UNL     1     111.355 114.968  80.453  1.00  0.00     0.042 A 
ATOM     10  C   UNL     1     108.857 115.391  80.080  1.00  0.00     0.046 C 
BRANCH   7  11
ATOM     11  N   UNL     1     113.727 114.209  80.291  1.00  0.00    -0.311 N 
ATOM     12  C   UNL     1     114.866 114.852  79.741  1.00  0.00     0.291 C 
ATOM     13  O   UNL     1     114.868 115.620  78.785  1.00  0.00    -0.265 OA
ATOM     14  H   UNL     1     113.884 113.609  81.097  1.00  0.00     0.171 HD
BRANCH  12  15
ATOM     15  C   UNL     1     116.164 114.577  80.412  1.00  0.00     0.191 A 
ATOM     16  O   UNL     1     116.809 113.423  80.101  1.00  0.00    -0.459 OA
ATOM     17  C   UNL     1     116.883 115.299  81.336  1.00  0.00     0.056 A 
ATOM     18  C   UNL     1     117.954 113.407  80.834  1.00  0.00     0.196 A 
ATOM     19  C   UNL     1     118.045 114.539  81.610  1.00  0.00     0.043 A 
ENDBRANCH  12  15
ENDBRANCH   7  11
ENDBRANCH   3   5
BRANCH   2  20
ATOM     20  C   UNL     1     108.403 111.439  76.567  1.00  0.00     0.041 A 
ATOM     21  C   UNL     1     108.638 111.457  75.193  1.00  0.00     0.033 A 
ATOM     22  C   UNL     1     107.323 110.723  77.082  1.00  0.00     0.026 A 
ATOM     23  C   UNL     1     107.791 110.759  74.332  1.00  0.00    -0.006 A 
ATOM     24  C   UNL     1     106.476 110.025  76.221  1.00  0.00     0.003 A 
ATOM     25  C   UNL     1     106.709 110.043  74.846  1.00  0.00     0.007 A 
BRANCH  23  26
ATOM     26  C   UNL     1     108.044 110.779  72.842  1.00  0.00     0.221 C 
ATOM     27  N   UNL     1     108.274 112.088  72.336  1.00  0.00    -0.298 N 
ATOM     28  N   UNL     1     106.900 110.280  72.076  1.00  0.00    -0.124 NA
ATOM     29  C   UNL     1     107.300 112.461  71.455  1.00  0.00     0.427 C 
ATOM     30  O   UNL     1     106.414 111.435  71.303  1.00  0.00    -0.351 OA
ATOM     31  O   UNL     1     107.205 113.537  70.880  1.00  0.00    -0.223 OA
ATOM     32  H   UNL     1     109.051 112.682  72.610  1.00  0.00     0.169 HD
ATOM     33  H   UNL     1     107.235 109.699  71.307  1.00  0.00     0.172 HD
ENDBRANCH  23  26
ENDBRANCH   2  20
TORSDOF 5
ENDMDL
MODEL 4
REMARK VINA RESULT:      -9.7      1.541      1.806
REMARK SMILES Cc1cc(NC(=O)c2ccco2)sc1C(=O)Nc1cccc([C@H]2NOC(=O)N2)c1
REMARK SMILES IDX 16 1 17 2 15 3 14 5 13 6 4 7 2 8 3 9 1 10 5 11 6 12 7 13
REMARK SMILES IDX 8 15 12 16 9 17 11 18 10 19 18 20 29 21 19 22 22 23 20 24
REMARK SMILES IDX 21 25 23 26 28 27 24 28 26 29 25 30 27 31
REMARK H PARENT 17 4 5 14 28 32 24 33
ROOT
ATOM      1  O   UNL     1     108.821 113.492  79.144  1.00  0.00    -0.268 OA
ATOM      2  N   UNL     1     109.100 111.277  78.409  1.00  0.00    -0.321 N 
ATOM      3  C   UNL     1     109.492 112.472  79.026  1.00  0.00     0.266 C 
ATOM      4  H   UNL     1     109.781 110.521  78.402  1.00  0.00     0.170 HD
ENDROOT
BRANCH   3   5
ATOM      5  C   UNL     1     110.856 112.468  79.614  1.00  0.00     0.097 A 
ATOM      6  S   UNL     1     112.008 113.592  79.027  1.00  0.00    -0.112 S 
ATOM      7  C   UNL     1     113.205 113.007  80.102  1.00  0.00     0.096 A 
ATOM      8  C   UNL     1     111.375 111.666  80.606  1.00  0.00    -0.025 A 
ATOM      9  C   UNL     1     112.736 111.978  80.889  1.00  0.00     0.042 A 
ATOM     10  C   UNL     1     110.618 110.600  81.306  1.00  0.00     0.046 C 
BRANCH   7  11
ATOM     11  N   UNL     1     114.434 113.606  80.052  1.00  0.00    -0.311 N 
ATOM     12  C   UNL     1     115.552 113.279  79.242  1.00  0.00     0.291 C 
ATOM     13  O   UNL     1     115.605 112.371  78.421  1.00  0.00    -0.265 OA
ATOM     14  H   UNL     1     114.538 114.400  80.679  1.00  0.00     0.171 HD
BRANCH  12  15
ATOM     15  C   UNL     1     116.752 114.142  79.399  1.00  0.00     0.191 A 
ATOM     16  O   UNL     1     117.774 113.678  80.165  1.00  0.00    -0.459 OA
ATOM     17  C   UNL     1     117.052 115.387  78.896  1.00  0.00     0.056 A 
ATOM     18  C   UNL     1     118.738 114.635  80.149  1.00  0.00     0.196 A 
ATOM     19  C   UNL     1     118.342 115.707  79.384  1.00  0.00     0.043 A 
ENDBRANCH  12  15
ENDBRANCH   7  11
ENDBRANCH   3   5
BRANCH   2  20
ATOM     20  C   UNL     1     107.878 110.984  77.798  1.00  0.00     0.041 A 
ATOM     21  C   UNL     1     106.690 111.448  78.360  1.00  0.00     0.033 A 
ATOM     22  C   UNL     1     107.849 110.227  76.628  1.00  0.00     0.026 A 
ATOM     23  C   UNL     1     105.469 111.155  77.751  1.00  0.00    -0.006 A 
ATOM     24  C   UNL     1     106.629 109.935  76.018  1.00  0.00     0.003 A 
ATOM     25  C   UNL     1     105.439 110.398  76.579  1.00  0.00     0.007 A 
BRANCH  23  26
ATOM     26  C   UNL     1     104.181 111.658  78.359  1.00  0.00     0.221 C 
ATOM     27  N   UNL     1     104.183 111.609  79.780  1.00  0.00    -0.298 N 
ATOM     28  N   UNL     1     103.025 110.849  77.962  1.00  0.00    -0.124 NA
ATOM     29  C   UNL     1     103.237 110.746  80.253  1.00  0.00     0.427 C 
ATOM     30  O   UNL     1     102.548 110.215  79.202  1.00  0.00    -0.351 OA
ATOM     31  O   UNL     1     103.019 110.468  81.424  1.00  0.00    -0.223 OA
ATOM     32  H   UNL     1     104.821 112.133  80.371  1.00  0.00     0.169 HD
ATOM     33  H   UNL     1     102.231 111.462  77.776  1.00  0.00     0.172 HD
ENDBRANCH  23  26
ENDBRANCH   2  20
TORSDOF 5
ENDMDL
MODEL 5
REMARK VINA RESULT:      -9.6      1.372      1.890
REMARK SMILES Cc1cc(NC(=O)c2ccco2)sc1C(=O)Nc1cccc([C@H]2NOC(=O)N2)c1
REMARK SMILES IDX 16 1 17 2 15 3 14 5 13 6 4 7 2 8 3 9 1 10 5 11 6 12 7 13
REMARK SMILES IDX 8 15 12 16 9 17 11 18 10 19 18 20 29 21 19 22 22 23 20 24
REMARK SMILES IDX 21 25 23 26 28 27 24 28 26 29 25 30 27 31
REMARK H PARENT 17 4 5 14 28 32 24 33
ROOT
ATOM      1  O   UNL     1     109.162 113.642  77.624  1.00  0.00    -0.268 OA
ATOM      2  N   UNL     1     109.218 111.293  77.537  1.00  0.00    -0.321 N 
ATOM      3  C   UNL     1     109.765 112.576  77.681  1.00  0.00     0.266 C 
ATOM      4  H   UNL     1     109.863 110.510  77.618  1.00  0.00     0.170 HD
ENDROOT
BRANCH   3   5
ATOM      5  C   UNL     1     111.224 112.618  77.959  1.00  0.00     0.097 A 
ATOM      6  S   UNL     1     111.781 113.536  79.294  1.00  0.00    -0.112 S 
ATOM      7  C   UNL     1     113.409 113.119  78.970  1.00  0.00     0.096 A 
ATOM      8  C   UNL     1     112.258 112.009  77.283  1.00  0.00    -0.025 A 
ATOM      9  C   UNL     1     113.524 112.298  77.869  1.00  0.00     0.042 A 
ATOM     10  C   UNL     1     112.089 111.150  76.087  1.00  0.00     0.046 C 
BRANCH   7  11
ATOM     11  N   UNL     1     114.362 113.629  79.809  1.00  0.00    -0.311 N 
ATOM     12  C   UNL     1     115.560 114.315  79.483  1.00  0.00     0.291 C 
ATOM     13  O   UNL     1     115.956 114.575  78.352  1.00  0.00    -0.265 OA
ATOM     14  H   UNL     1     114.161 113.501  80.798  1.00  0.00     0.171 HD
BRANCH  12  15
ATOM     15  C   UNL     1     116.387 114.775  80.629  1.00  0.00     0.191 A 
ATOM     16  O   UNL     1     117.659 114.308  80.724  1.00  0.00    -0.459 OA
ATOM     17  C   UNL     1     116.105 115.627  81.672  1.00  0.00     0.056 A 
ATOM     18  C   UNL     1     118.197 114.869  81.839  1.00  0.00     0.196 A 
ATOM     19  C   UNL     1     117.282 115.688  82.458  1.00  0.00     0.043 A 
ENDBRANCH  12  15
ENDBRANCH   7  11
ENDBRANCH   3   5
BRANCH   2  20
ATOM     20  C   UNL     1     107.887 110.948  77.298  1.00  0.00     0.041 A 
ATOM     21  C   UNL     1     106.865 111.577  78.009  1.00  0.00     0.033 A 
ATOM     22  C   UNL     1     107.580 109.975  76.348  1.00  0.00     0.026 A 
ATOM     23  C   UNL     1     105.535 111.231  77.770  1.00  0.00    -0.006 A 
ATOM     24  C   UNL     1     106.249 109.630  76.109  1.00  0.00     0.003 A 
ATOM     25  C   UNL     1     105.227 110.257  76.820  1.00  0.00     0.007 A 
BRANCH  23  26
ATOM     26  C   UNL     1     104.427 111.913  78.539  1.00  0.00     0.221 C 
ATOM     27  N   UNL     1     104.381 111.523  79.906  1.00  0.00    -0.298 N 
ATOM     28  N   UNL     1     103.100 111.582  78.015  1.00  0.00    -0.124 NA
ATOM     29  C   UNL     1     103.218 110.873  80.202  1.00  0.00     0.427 C 
ATOM     30  O   UNL     1     102.432 110.827  79.088  1.00  0.00    -0.351 OA
ATOM     31  O   UNL     1     102.901 110.391  81.281  1.00  0.00    -0.223 OA
ATOM     32  H   UNL     1     105.127 111.687  80.576  1.00  0.00     0.169 HD
ATOM     33  H   UNL     1     102.517 112.420  78.018  1.00  0.00     0.172 HD
ENDBRANCH  23  26
ENDBRANCH   2  20
TORSDOF 5
ENDMDL
MODEL 6
REMARK VINA RESULT:      -9.4      2.821     11.450
REMARK SMILES Cc1cc(NC(=O)c2ccco2)sc1C(=O)Nc1cccc([C@H]2NOC(=O)N2)c1
REMARK SMILES IDX 16 1 17 2 15 3 14 5 13 6 4 7 2 8 3 9 1 10 5 11 6 12 7 13
REMARK SMILES IDX 8 15 12 16 9 17 11 18 10 19 18 20 29 21 19 22 22 23 20 24
REMARK SMILES IDX 21 25 23 26 28 27 24 28 26 29 25 30 27 31
REMARK H PARENT 17 4 5 14 28 32 24 33
ROOT
ATOM      1  O   UNL     1     114.439 112.385  77.815  1.00  0.00    -0.268 OA
ATOM      2  N   UNL     1     114.649 113.402  79.924  1.00  0.00    -0.321 N 
ATOM      3  C   UNL     1     113.998 112.669  78.923  1.00  0.00     0.266 C 
ATOM      4  H   UNL     1     114.138 113.544  80.793  1.00  0.00     0.170 HD
ENDROOT
BRANCH   3   5
ATOM      5  C   UNL     1     112.642 112.172  79.278  1.00  0.00     0.097 A 
ATOM      6  S   UNL     1     111.291 112.793  78.429  1.00  0.00    -0.112 S 
ATOM      7  C   UNL     1     110.209 111.821  79.332  1.00  0.00     0.096 A 
ATOM      8  C   UNL     1     112.275 111.245  80.228  1.00  0.00    -0.025 A 
ATOM      9  C   UNL     1     110.865 111.041  80.259  1.00  0.00     0.042 A 
ATOM     10  C   UNL     1     113.223 110.535  81.119  1.00  0.00     0.046 C 
BRANCH   7  11
ATOM     11  N   UNL     1     108.878 111.930  79.037  1.00  0.00    -0.311 N 
ATOM     12  C   UNL     1     108.140 111.298  78.004  1.00  0.00     0.291 C 
ATOM     13  O   UNL     1     108.589 110.517  77.172  1.00  0.00    -0.265 OA
ATOM     14  H   UNL     1     108.360 112.544  79.662  1.00  0.00     0.171 HD
BRANCH  12  15
ATOM     15  C   UNL     1     106.685 111.600  77.955  1.00  0.00     0.191 A 
ATOM     16  O   UNL     1     105.948 111.361  79.071  1.00  0.00    -0.459 OA
ATOM     17  C   UNL     1     105.892 112.103  76.951  1.00  0.00     0.056 A 
ATOM     18  C   UNL     1     104.670 111.715  78.777  1.00  0.00     0.196 A 
ATOM     19  C   UNL     1     104.582 112.178  77.485  1.00  0.00     0.043 A 
ENDBRANCH  12  15
ENDBRANCH   7  11
ENDBRANCH   3   5
BRANCH   2  20
ATOM     20  C   UNL     1     115.926 113.965  79.884  1.00  0.00     0.041 A 
ATOM     21  C   UNL     1     117.014 113.264  80.403  1.00  0.00     0.033 A 
ATOM     22  C   UNL     1     116.112 115.229  79.324  1.00  0.00     0.026 A 
ATOM     23  C   UNL     1     118.290 113.828  80.363  1.00  0.00    -0.006 A 
ATOM     24  C   UNL     1     117.387 115.792  79.284  1.00  0.00     0.003 A 
ATOM     25  C   UNL     1     118.476 115.093  79.803  1.00  0.00     0.007 A 
BRANCH  23  26
ATOM     26  C   UNL     1     119.469 113.069  80.925  1.00  0.00     0.221 C 
ATOM     27  N   UNL     1     119.224 112.549  82.225  1.00  0.00    -0.298 N 
ATOM     28  N   UNL     1     120.653 113.918  81.082  1.00  0.00    -0.124 NA
ATOM     29  C   UNL     1     120.053 113.110  83.153  1.00  0.00     0.427 C 
ATOM     30  O   UNL     1     120.896 113.985  82.533  1.00  0.00    -0.351 OA
ATOM     31  O   UNL     1     120.061 112.891  84.357  1.00  0.00    -0.223 OA
ATOM     32  H   UNL     1     118.509 111.861  82.444  1.00  0.00     0.169 HD
ATOM     33  H   UNL     1     121.483 113.395  80.802  1.00  0.00     0.172 HD
ENDBRANCH  23  26
ENDBRANCH   2  20
TORSDOF 5
ENDMDL
MODEL 7
REMARK VINA RESULT:      -9.1      3.491      4.953
REMARK SMILES Cc1cc(NC(=O)c2ccco2)sc1C(=O)Nc1cccc([C@H]2NOC(=O)N2)c1
REMARK SMILES IDX 16 1 17 2 15 3 14 5 13 6 4 7 2 8 3 9 1 10 5 11 6 12 7 13
REMARK SMILES IDX 8 15 12 16 9 17 11 18 10 19 18 20 29 21 19 22 22 23 20 24
REMARK SMILES IDX 21 25 23 26 28 27 24 28 26 29 25 30 27 31
REMARK H PARENT 17 4 5 14 28 32 24 33
ROOT
ATOM      1  O   UNL     1     112.276 116.338  78.617  1.00  0.00    -0.268 OA
ATOM      2  N   UNL     1     112.264 113.999  78.387  1.00  0.00    -0.321 N 
ATOM      3  C   UNL     1     112.851 115.255  78.585  1.00  0.00     0.266 C 
ATOM      4  H   UNL     1     112.889 113.196  78.393  1.00  0.00     0.170 HD
ENDROOT
BRANCH   3   5
ATOM      5  C   UNL     1     114.321 115.245  78.803  1.00  0.00     0.097 A 
ATOM      6  S   UNL     1     114.990 114.054  79.836  1.00  0.00    -0.112 S 
ATOM      7  C   UNL     1     116.574 114.655  79.590  1.00  0.00     0.096 A 
ATOM      8  C   UNL     1     115.285 116.080  78.283  1.00  0.00    -0.025 A 
ATOM      9  C   UNL     1     116.591 115.738  78.739  1.00  0.00     0.042 A 
ATOM     10  C   UNL     1     115.011 117.205  77.358  1.00  0.00     0.046 C 
BRANCH   7  11
ATOM     11  N   UNL     1     117.592 114.013  80.241  1.00  0.00    -0.311 N 
ATOM     12  C   UNL     1     118.277 114.399  81.422  1.00  0.00     0.291 C 
ATOM     13  O   UNL     1     118.062 115.410  82.081  1.00  0.00    -0.265 OA
ATOM     14  H   UNL     1     117.875 113.134  79.812  1.00  0.00     0.171 HD
BRANCH  12  15
ATOM     15  C   UNL     1     119.332 113.469  81.904  1.00  0.00     0.191 A 
ATOM     16  O   UNL     1     119.508 113.347  83.246  1.00  0.00    -0.459 OA
ATOM     17  C   UNL     1     120.214 112.661  81.225  1.00  0.00     0.056 A 
ATOM     18  C   UNL     1     120.513 112.451  83.426  1.00  0.00     0.196 A 
ATOM     19  C   UNL     1     120.981 111.999  82.215  1.00  0.00     0.043 A 
ENDBRANCH  12  15
ENDBRANCH   7  11
ENDBRANCH   3   5
BRANCH   2  20
ATOM     20  C   UNL     1     110.915 113.702  78.183  1.00  0.00     0.041 A 
ATOM     21  C   UNL     1     110.401 113.646  76.888  1.00  0.00     0.033 A 
ATOM     22  C   UNL     1     110.083 113.461  79.276  1.00  0.00     0.026 A 
ATOM     23  C   UNL     1     109.052 113.351  76.686  1.00  0.00    -0.006 A 
ATOM     24  C   UNL     1     108.735 113.165  79.073  1.00  0.00     0.003 A 
ATOM     25  C   UNL     1     108.219 113.110  77.779  1.00  0.00     0.007 A 
BRANCH  23  26
ATOM     26  C   UNL     1     108.495 113.290  75.283  1.00  0.00     0.221 C 
ATOM     27  N   UNL     1     107.333 112.476  75.183  1.00  0.00    -0.298 N 
ATOM     28  N   UNL     1     109.442 112.703  74.332  1.00  0.00    -0.124 NA
ATOM     29  C   UNL     1     107.548 111.394  74.379  1.00  0.00     0.427 C 
ATOM     30  O   UNL     1     108.819 111.446  73.885  1.00  0.00    -0.351 OA
ATOM     31  O   UNL     1     106.753 110.499  74.126  1.00  0.00    -0.223 OA
ATOM     32  H   UNL     1     106.458 112.662  75.664  1.00  0.00     0.169 HD
ATOM     33  H   UNL     1     109.407 113.223  73.455  1.00  0.00     0.172 HD
ENDBRANCH  23  26
ENDBRANCH   2  20
TORSDOF 5
ENDMDL
MODEL 8
REMARK VINA RESULT:      -8.8      3.823      5.060
REMARK SMILES Cc1cc(NC(=O)c2ccco2)sc1C(=O)Nc1cccc([C@H]2NOC(=O)N2)c1
REMARK SMILES IDX 16 1 17 2 15 3 14 5 13 6 4 7 2 8 3 9 1 10 5 11 6 12 7 13
REMARK SMILES IDX 8 15 12 16 9 17 11 18 10 19 18 20 29 21 19 22 22 23 20 24
REMARK SMILES IDX 21 25 23 26 28 27 24 28 26 29 25 30 27 31
REMARK H PARENT 17 4 5 14 28 32 24 33
ROOT
ATOM      1  O   UNL     1     109.662 111.176  77.283  1.00  0.00    -0.268 OA
ATOM      2  N   UNL     1     111.145 112.132  75.729  1.00  0.00    -0.321 N 
ATOM      3  C   UNL     1     110.573 111.945  76.995  1.00  0.00     0.266 C 
ATOM      4  H   UNL     1     111.901 112.811  75.666  1.00  0.00     0.170 HD
ENDROOT
BRANCH   3   5
ATOM      5  C   UNL     1     111.169 112.754  78.090  1.00  0.00     0.097 A 
ATOM      6  S   UNL     1     112.863 112.689  78.332  1.00  0.00    -0.112 S 
ATOM      7  C   UNL     1     112.772 113.785  79.644  1.00  0.00     0.096 A 
ATOM      8  C   UNL     1     110.549 113.592  78.990  1.00  0.00    -0.025 A 
ATOM      9  C   UNL     1     111.478 114.190  79.891  1.00  0.00     0.042 A 
ATOM     10  C   UNL     1     109.090 113.852  79.029  1.00  0.00     0.046 C 
BRANCH   7  11
ATOM     11  N   UNL     1     113.945 114.113  80.265  1.00  0.00    -0.311 N 
ATOM     12  C   UNL     1     115.000 114.939  79.797  1.00  0.00     0.291 C 
ATOM     13  O   UNL     1     115.036 115.518  78.718  1.00  0.00    -0.265 OA
ATOM     14  H   UNL     1     114.054 113.712  81.194  1.00  0.00     0.171 HD
BRANCH  12  15
ATOM     15  C   UNL     1     116.147 115.128  80.724  1.00  0.00     0.191 A 
ATOM     16  O   UNL     1     115.905 115.721  81.922  1.00  0.00    -0.459 OA
ATOM     17  C   UNL     1     117.478 114.806  80.604  1.00  0.00     0.056 A 
ATOM     18  C   UNL     1     117.095 115.776  82.576  1.00  0.00     0.196 A 
ATOM     19  C   UNL     1     118.094 115.226  81.808  1.00  0.00     0.043 A 
ENDBRANCH  12  15
ENDBRANCH   7  11
ENDBRANCH   3   5
BRANCH   2  20
ATOM     20  C   UNL     1     110.811 111.497  74.532  1.00  0.00     0.041 A 
ATOM     21  C   UNL     1     109.542 111.673  73.980  1.00  0.00     0.033 A 
ATOM     22  C   UNL     1     111.746 110.688  73.888  1.00  0.00     0.026 A 
ATOM     23  C   UNL     1     109.208 111.038  72.784  1.00  0.00    -0.006 A 
ATOM     24  C   UNL     1     111.412 110.053  72.692  1.00  0.00     0.003 A 
ATOM     25  C   UNL     1     110.143 110.228  72.139  1.00  0.00     0.007 A 
BRANCH  23  26
ATOM     26  C   UNL     1     107.833 111.228  72.186  1.00  0.00     0.221 C 
ATOM     27  N   UNL     1     107.865 111.876  70.920  1.00  0.00    -0.298 N 
ATOM     28  N   UNL     1     106.978 112.079  73.017  1.00  0.00    -0.124 NA
ATOM     29  C   UNL     1     107.234 113.086  70.961  1.00  0.00     0.427 C 
ATOM     30  O   UNL     1     106.730 113.288  72.213  1.00  0.00    -0.351 OA
ATOM     31  O   UNL     1     107.124 113.887  70.043  1.00  0.00    -0.223 OA
ATOM     32  H   UNL     1     108.318 111.498  70.093  1.00  0.00     0.169 HD
ATOM     33  H   UNL     1     106.032 111.696  73.031  1.00  0.00     0.172 HD
ENDBRANCH  23  26
ENDBRANCH   2  20
TORSDOF 5
ENDMDL
MODEL 9
REMARK VINA RESULT:      -8.7      2.378     10.845
REMARK SMILES Cc1cc(NC(=O)c2ccco2)sc1C(=O)Nc1cccc([C@H]2NOC(=O)N2)c1
REMARK SMILES IDX 16 1 17 2 15 3 14 5 13 6 4 7 2 8 3 9 1 10 5 11 6 12 7 13
REMARK SMILES IDX 8 15 12 16 9 17 11 18 10 19 18 20 29 21 19 22 22 23 20 24
REMARK SMILES IDX 21 25 23 26 28 27 24 28 26 29 25 30 27 31
REMARK H PARENT 17 4 5 14 28 32 24 33
ROOT
ATOM      1  O   UNL     1     112.881 112.506  80.465  1.00  0.00    -0.268 OA
ATOM      2  N   UNL     1     113.471 113.605  78.472  1.00  0.00    -0.321 N 
ATOM      3  C   UNL     1     112.588 113.135  79.454  1.00  0.00     0.266 C 
ATOM      4  H   UNL     1     113.059 114.116  77.695  1.00  0.00     0.170 HD
ENDROOT
BRANCH   3   5
ATOM      5  C   UNL     1     111.156 113.469  79.236  1.00  0.00     0.097 A 
ATOM      6  S   UNL     1     109.986 112.232  79.414  1.00  0.00    -0.112 S 
ATOM      7  C   UNL     1     108.711 113.309  79.037  1.00  0.00     0.096 A 
ATOM      8  C   UNL     1     110.586 114.676  78.897  1.00  0.00    -0.025 A 
ATOM      9  C   UNL     1     109.168 114.584  78.781  1.00  0.00     0.042 A 
ATOM     10  C   UNL     1     111.343 115.931  78.675  1.00  0.00     0.046 C 
BRANCH   7  11
ATOM     11  N   UNL     1     107.443 112.798  79.034  1.00  0.00    -0.311 N 
ATOM     12  C   UNL     1     106.851 111.889  78.119  1.00  0.00     0.291 C 
ATOM     13  O   UNL     1     107.399 111.391  77.142  1.00  0.00    -0.265 OA
ATOM     14  H   UNL     1     106.862 113.113  79.808  1.00  0.00     0.171 HD
BRANCH  12  15
ATOM     15  C   UNL     1     105.445 111.495  78.401  1.00  0.00     0.191 A 
ATOM     16  O   UNL     1     104.843 110.630  77.543  1.00  0.00    -0.459 OA
ATOM     17  C   UNL     1     104.584 111.851  79.412  1.00  0.00     0.056 A 
ATOM     18  C   UNL     1     103.584 110.430  78.013  1.00  0.00     0.196 A 
ATOM     19  C   UNL     1     103.375 111.158  79.160  1.00  0.00     0.043 A 
ENDBRANCH  12  15
ENDBRANCH   7  11
ENDBRANCH   3   5
BRANCH   2  20
ATOM     20  C   UNL     1     114.859 113.464  78.426  1.00  0.00     0.041 A 
ATOM     21  C   UNL     1     115.669 114.269  79.227  1.00  0.00     0.033 A 
ATOM     22  C   UNL     1     115.435 112.519  77.579  1.00  0.00     0.026 A 
ATOM     23  C   UNL     1     117.056 114.129  79.180  1.00  0.00    -0.006 A 
ATOM     24  C   UNL     1     116.822 112.378  77.532  1.00  0.00     0.003 A 
ATOM     25  C   UNL     1     117.633 113.183  78.332  1.00  0.00     0.007 A 
BRANCH  23  26
ATOM     26  C   UNL     1     117.933 115.001  80.047  1.00  0.00     0.221 C 
ATOM     27  N   UNL     1     118.980 114.277  80.681  1.00  0.00    -0.298 N 
ATOM     28  N   UNL     1     117.190 115.618  81.149  1.00  0.00    -0.124 NA
ATOM     29  C   UNL     1     118.847 114.290  82.040  1.00  0.00     0.427 C 
ATOM     30  O   UNL     1     117.754 115.033  82.377  1.00  0.00    -0.351 OA
ATOM     31  O   UNL     1     119.570 113.730  82.852  1.00  0.00    -0.223 OA
ATOM     32  H   UNL     1     119.724 113.792  80.187  1.00  0.00     0.169 HD
ATOM     33  H   UNL     1     117.502 116.582  81.269  1.00  0.00     0.172 HD
ENDBRANCH  23  26
ENDBRANCH   2  20
TORSDOF 5
ENDMDL
MODEL 10
REMARK VINA RESULT:      -8.7      3.203      3.932
REMARK SMILES Cc1cc(NC(=O)c2ccco2)sc1C(=O)Nc1cccc([C@H]2NOC(=O)N2)c1
REMARK SMILES IDX 16 1 17 2 15 3 14 5 13 6 4 7 2 8 3 9 1 10 5 11 6 12 7 13
REMARK SMILES IDX 8 15 12 16 9 17 11 18 10 19 18 20 29 21 19 22 22 23 20 24
REMARK SMILES IDX 21 25 23 26 28 27 24 28 26 29 25 30 27 31
REMARK H PARENT 17 4 5 14 28 32 24 33
ROOT
ATOM      1  O   UNL     1     110.778 113.144  77.078  1.00  0.00    -0.268 OA
ATOM      2  N   UNL     1     111.834 111.265  76.140  1.00  0.00    -0.321 N 
ATOM      3  C   UNL     1     111.630 112.262  77.103  1.00  0.00     0.266 C 
ATOM      4  H   UNL     1     112.588 110.605  76.318  1.00  0.00     0.170 HD
ENDROOT
BRANCH   3   5
ATOM      5  C   UNL     1     112.535 112.206  78.280  1.00  0.00     0.097 A 
ATOM      6  S   UNL     1     114.166 112.693  78.088  1.00  0.00    -0.112 S 
ATOM      7  C   UNL     1     114.513 112.368  79.732  1.00  0.00     0.096 A 
ATOM      8  C   UNL     1     112.263 111.805  79.570  1.00  0.00    -0.025 A 
ATOM      9  C   UNL     1     113.410 111.899  80.411  1.00  0.00     0.042 A 
ATOM     10  C   UNL     1     110.941 111.330  80.041  1.00  0.00     0.046 C 
BRANCH   7  11
ATOM     11  N   UNL     1     115.791 112.604  80.158  1.00  0.00    -0.311 N 
ATOM     12  C   UNL     1     116.425 113.843  80.430  1.00  0.00     0.291 C 
ATOM     13  O   UNL     1     115.913 114.952  80.327  1.00  0.00    -0.265 OA
ATOM     14  H   UNL     1     116.345 111.762  80.306  1.00  0.00     0.171 HD
BRANCH  12  15
ATOM     15  C   UNL     1     117.831 113.771  80.909  1.00  0.00     0.191 A 
ATOM     16  O   UNL     1     118.632 112.806  80.386  1.00  0.00    -0.459 OA
ATOM     17  C   UNL     1     118.522 114.528  81.826  1.00  0.00     0.056 A 
ATOM     18  C   UNL     1     119.848 112.950  80.974  1.00  0.00     0.196 A 
ATOM     19  C   UNL     1     119.833 113.994  81.869  1.00  0.00     0.043 A 
ENDBRANCH  12  15
ENDBRANCH   7  11
ENDBRANCH   3   5
BRANCH   2  20
ATOM     20  C   UNL     1     111.127 111.056  74.954  1.00  0.00     0.041 A 
ATOM     21  C   UNL     1     109.751 111.277  74.916  1.00  0.00     0.033 A 
ATOM     22  C   UNL     1     111.798 110.628  73.810  1.00  0.00     0.026 A 
ATOM     23  C   UNL     1     109.044 111.067  73.731  1.00  0.00    -0.006 A 
ATOM     24  C   UNL     1     111.091 110.419  72.625  1.00  0.00     0.003 A 
ATOM     25  C   UNL     1     109.714 110.638  72.585  1.00  0.00     0.007 A 
BRANCH  23  26
ATOM     26  C   UNL     1     107.552 111.306  73.689  1.00  0.00     0.221 C 
ATOM     27  N   UNL     1     107.136 112.361  74.547  1.00  0.00    -0.298 N 
ATOM     28  N   UNL     1     106.789 110.139  74.138  1.00  0.00    -0.124 NA
ATOM     29  C   UNL     1     106.315 111.905  75.538  1.00  0.00     0.427 C 
ATOM     30  O   UNL     1     106.117 110.565  75.377  1.00  0.00    -0.351 OA
ATOM     31  O   UNL     1     105.823 112.564  76.444  1.00  0.00    -0.223 OA
ATOM     32  H   UNL     1     107.427 113.329  74.451  1.00  0.00     0.169 HD
ATOM     33  H   UNL     1     105.970 110.021  73.541  1.00  0.00     0.172 HD
ENDBRANCH  23  26
ENDBRANCH   2  20
TORSDOF 5
ENDMDL
MODEL 11
REMARK VINA RESULT:      -8.7      3.692     11.038
REMARK SMILES Cc1cc(NC(=O)c2ccco2)sc1C(=O)Nc1cccc([C@H]2NOC(=O)N2)c1
REMARK SMILES IDX 16 1 17 2 15 3 14 5 13 6 4 7 2 8 3 9 1 10 5 11 6 12 7 13
REMARK SMILES IDX 8 15 12 16 9 17 11 18 10 19 18 20 29 21 19 22 22 23 20 24
REMARK SMILES IDX 21 25 23 26 28 27 24 28 26 29 25 30 27 31
REMARK H PARENT 17 4 5 14 28 32 24 33
ROOT
ATOM      1  O   UNL     1     112.730 114.434  80.837  1.00  0.00    -0.268 OA
ATOM      2  N   UNL     1     113.813 114.290  78.755  1.00  0.00    -0.321 N 
ATOM      3  C   UNL     1     112.718 114.228  79.628  1.00  0.00     0.266 C 
ATOM      4  H   UNL     1     113.626 114.094  77.774  1.00  0.00     0.170 HD
ENDROOT
BRANCH   3   5
ATOM      5  C   UNL     1     111.414 113.905  78.993  1.00  0.00     0.097 A 
ATOM      6  S   UNL     1     111.382 112.771  77.710  1.00  0.00    -0.112 S 
ATOM      7  C   UNL     1     109.687 112.932  77.539  1.00  0.00     0.096 A 
ATOM      8  C   UNL     1     110.159 114.394  79.282  1.00  0.00    -0.025 A 
ATOM      9  C   UNL     1     109.158 113.830  78.440  1.00  0.00     0.042 A 
ATOM     10  C   UNL     1     109.869 115.390  80.342  1.00  0.00     0.046 C 
BRANCH   7  11
ATOM     11  N   UNL     1     109.085 112.180  76.568  1.00  0.00    -0.311 N 
ATOM     12  C   UNL     1     108.711 112.558  75.252  1.00  0.00     0.291 C 
ATOM     13  O   UNL     1     108.872 113.664  74.747  1.00  0.00    -0.265 OA
ATOM     14  H   UNL     1     108.898 111.217  76.839  1.00  0.00     0.171 HD
BRANCH  12  15
ATOM     15  C   UNL     1     108.092 111.498  74.414  1.00  0.00     0.191 A 
ATOM     16  O   UNL     1     108.430 111.447  73.099  1.00  0.00    -0.459 OA
ATOM     17  C   UNL     1     107.195 110.502  74.721  1.00  0.00     0.056 A 
ATOM     18  C   UNL     1     107.742 110.406  72.561  1.00  0.00     0.196 A 
ATOM     19  C   UNL     1     106.968 109.792  73.517  1.00  0.00     0.043 A 
ENDBRANCH  12  15
ENDBRANCH   7  11
ENDBRANCH   3   5
BRANCH   2  20
ATOM     20  C   UNL     1     115.141 114.593  79.061  1.00  0.00     0.041 A 
ATOM     21  C   UNL     1     115.899 113.708  79.828  1.00  0.00     0.033 A 
ATOM     22  C   UNL     1     115.708 115.780  78.600  1.00  0.00     0.026 A 
ATOM     23  C   UNL     1     117.225 114.012  80.134  1.00  0.00    -0.006 A 
ATOM     24  C   UNL     1     117.035 116.083  78.905  1.00  0.00     0.003 A 
ATOM     25  C   UNL     1     117.794 115.199  79.673  1.00  0.00     0.007 A 
BRANCH  23  26
ATOM     26  C   UNL     1     118.047 113.054  80.965  1.00  0.00     0.221 C 
ATOM     27  N   UNL     1     118.675 113.681  82.075  1.00  0.00    -0.298 N 
ATOM     28  N   UNL     1     119.149 112.460  80.203  1.00  0.00    -0.124 NA
ATOM     29  C   UNL     1     120.036 113.638  81.971  1.00  0.00     0.427 C 
ATOM     30  O   UNL     1     120.378 112.966  80.835  1.00  0.00    -0.351 OA
ATOM     31  O   UNL     1     120.846 114.120  82.751  1.00  0.00    -0.223 OA
ATOM     32  H   UNL     1     118.177 114.126  82.841  1.00  0.00     0.169 HD
ATOM     33  H   UNL     1     119.235 111.473  80.446  1.00  0.00     0.172 HD
ENDBRANCH  23  26
ENDBRANCH   2  20
TORSDOF 5
ENDMDL
MODEL 12
REMARK VINA RESULT:      -8.6      3.189     11.327
REMARK SMILES Cc1cc(NC(=O)c2ccco2)sc1C(=O)Nc1cccc([C@H]2NOC(=O)N2)c1
REMARK SMILES IDX 16 1 17 2 15 3 14 5 13 6 4 7 2 8 3 9 1 10 5 11 6 12 7 13
REMARK SMILES IDX 8 15 12 16 9 17 11 18 10 19 18 20 29 21 19 22 22 23 20 24
REMARK SMILES IDX 21 25 23 26 28 27 24 28 26 29 25 30 27 31
REMARK H PARENT 17 4 5 14 28 32 24 33
ROOT
ATOM      1  O   UNL     1     113.226 114.533  80.815  1.00  0.00    -0.268 OA
ATOM      2  N   UNL     1     114.627 113.196  79.482  1.00  0.00    -0.321 N 
ATOM      3  C   UNL     1     113.415 113.573  80.076  1.00  0.00     0.266 C 
ATOM      4  H   UNL     1     114.608 112.370  78.889  1.00  0.00     0.170 HD
ENDROOT
BRANCH   3   5
ATOM      5  C   UNL     1     112.247 112.719  79.737  1.00  0.00     0.097 A 
ATOM      6  S   UNL     1     111.729 112.644  78.106  1.00  0.00    -0.112 S 
ATOM      7  C   UNL     1     110.463 111.562  78.502  1.00  0.00     0.096 A 
ATOM      8  C   UNL     1     111.471 111.936  80.563  1.00  0.00    -0.025 A 
ATOM      9  C   UNL     1     110.437 111.265  79.847  1.00  0.00     0.042 A 
ATOM     10  C   UNL     1     111.675 111.798  82.025  1.00  0.00     0.046 C 
BRANCH   7  11
ATOM     11  N   UNL     1     109.662 111.138  77.478  1.00  0.00    -0.311 N 
ATOM     12  C   UNL     1     108.261 111.298  77.318  1.00  0.00     0.291 C 
ATOM     13  O   UNL     1     107.507 111.863  78.102  1.00  0.00    -0.265 OA
ATOM     14  H   UNL     1     110.157 110.656  76.730  1.00  0.00     0.171 HD
BRANCH  12  15
ATOM     15  C   UNL     1     107.675 110.744  76.069  1.00  0.00     0.191 A 
ATOM     16  O   UNL     1     108.081 111.274  74.886  1.00  0.00    -0.459 OA
ATOM     17  C   UNL     1     106.751 109.746  75.860  1.00  0.00     0.056 A 
ATOM     18  C   UNL     1     107.411 110.607  73.910  1.00  0.00     0.196 A 
ATOM     19  C   UNL     1     106.580 109.657  74.457  1.00  0.00     0.043 A 
ENDBRANCH  12  15
ENDBRANCH   7  11
ENDBRANCH   3   5
BRANCH   2  20
ATOM     20  C   UNL     1     115.872 113.819  79.598  1.00  0.00     0.041 A 
ATOM     21  C   UNL     1     116.946 113.130  80.160  1.00  0.00     0.033 A 
ATOM     22  C   UNL     1     116.039 115.129  79.152  1.00  0.00     0.026 A 
ATOM     23  C   UNL     1     118.189 113.753  80.277  1.00  0.00    -0.006 A 
ATOM     24  C   UNL     1     117.282 115.751  79.268  1.00  0.00     0.003 A 
ATOM     25  C   UNL     1     118.357 115.064  79.831  1.00  0.00     0.007 A 
BRANCH  23  26
ATOM     26  C   UNL     1     119.354 113.007  80.886  1.00  0.00     0.221 C 
ATOM     27  N   UNL     1     119.081 112.530  82.197  1.00  0.00    -0.298 N 
ATOM     28  N   UNL     1     120.539 113.854  81.038  1.00  0.00    -0.124 NA
ATOM     29  C   UNL     1     119.895 113.117  83.123  1.00  0.00     0.427 C 
ATOM     30  O   UNL     1     120.755 113.967  82.490  1.00  0.00    -0.351 OA
ATOM     31  O   UNL     1     119.880 112.937  84.333  1.00  0.00    -0.223 OA
ATOM     32  H   UNL     1     118.359 111.853  82.424  1.00  0.00     0.169 HD
ATOM     33  H   UNL     1     121.372 113.319  80.791  1.00  0.00     0.172 HD
ENDBRANCH  23  26
ENDBRANCH   2  20
TORSDOF 5
ENDMDL
MODEL 13
REMARK VINA RESULT:      -8.6      3.090      3.914
REMARK SMILES Cc1cc(NC(=O)c2ccco2)sc1C(=O)Nc1cccc([C@H]2NOC(=O)N2)c1
REMARK SMILES IDX 16 1 17 2 15 3 14 5 13 6 4 7 2 8 3 9 1 10 5 11 6 12 7 13
REMARK SMILES IDX 8 15 12 16 9 17 11 18 10 19 18 20 29 21 19 22 22 23 20 24
REMARK SMILES IDX 21 25 23 26 28 27 24 28 26 29 25 30 27 31
REMARK H PARENT 17 4 5 14 28 32 24 33
ROOT
ATOM      1  O   UNL     1     110.807 113.017  76.680  1.00  0.00    -0.268 OA
ATOM      2  N   UNL     1     109.449 112.547  78.539  1.00  0.00    -0.321 N 
ATOM      3  C   UNL     1     110.616 112.970  77.890  1.00  0.00     0.266 C 
ATOM      4  H   UNL     1     109.456 112.575  79.557  1.00  0.00     0.170 HD
ENDROOT
BRANCH   3   5
ATOM      5  C   UNL     1     111.711 113.432  78.783  1.00  0.00     0.097 A 
ATOM      6  S   UNL     1     113.248 112.688  78.651  1.00  0.00    -0.112 S 
ATOM      7  C   UNL     1     113.892 113.677  79.891  1.00  0.00     0.096 A 
ATOM      8  C   UNL     1     111.691 114.411  79.751  1.00  0.00    -0.025 A 
ATOM      9  C   UNL     1     112.955 114.554  80.393  1.00  0.00     0.042 A 
ATOM     10  C   UNL     1     110.503 115.228  80.095  1.00  0.00     0.046 C 
BRANCH   7  11
ATOM     11  N   UNL     1     115.205 113.487  80.222  1.00  0.00    -0.311 N 
ATOM     12  C   UNL     1     116.266 114.429  80.235  1.00  0.00     0.291 C 
ATOM     13  O   UNL     1     116.178 115.616  79.942  1.00  0.00    -0.265 OA
ATOM     14  H   UNL     1     115.431 112.536  80.506  1.00  0.00     0.171 HD
BRANCH  12  15
ATOM     15  C   UNL     1     117.593 113.919  80.671  1.00  0.00     0.191 A 
ATOM     16  O   UNL     1     118.119 114.416  81.820  1.00  0.00    -0.459 OA
ATOM     17  C   UNL     1     118.441 112.992  80.111  1.00  0.00     0.056 A 
ATOM     18  C   UNL     1     119.316 113.798  81.998  1.00  0.00     0.196 A 
ATOM     19  C   UNL     1     119.561 112.914  80.974  1.00  0.00     0.043 A 
ENDBRANCH  12  15
ENDBRANCH   7  11
ENDBRANCH   3   5
BRANCH   2  20
ATOM     20  C   UNL     1     108.262 112.089  77.964  1.00  0.00     0.041 A 
ATOM     21  C   UNL     1     108.192 111.874  76.588  1.00  0.00     0.033 A 
ATOM     22  C   UNL     1     107.147 111.847  78.766  1.00  0.00     0.026 A 
ATOM     23  C   UNL     1     107.006 111.417  76.013  1.00  0.00    -0.006 A 
ATOM     24  C   UNL     1     105.961 111.389  78.191  1.00  0.00     0.003 A 
ATOM     25  C   UNL     1     105.890 111.175  76.815  1.00  0.00     0.007 A 
BRANCH  23  26
ATOM     26  C   UNL     1     106.930 111.183  74.522  1.00  0.00     0.221 C 
ATOM     27  N   UNL     1     108.124 110.626  73.987  1.00  0.00    -0.298 N 
ATOM     28  N   UNL     1     106.733 112.427  73.773  1.00  0.00    -0.124 NA
ATOM     29  C   UNL     1     108.722 111.478  73.103  1.00  0.00     0.427 C 
ATOM     30  O   UNL     1     107.960 112.602  72.978  1.00  0.00    -0.351 OA
ATOM     31  O   UNL     1     109.774 111.295  72.506  1.00  0.00    -0.223 OA
ATOM     32  H   UNL     1     108.499 109.718  74.244  1.00  0.00     0.169 HD
ATOM     33  H   UNL     1     106.070 112.264  73.015  1.00  0.00     0.172 HD
ENDBRANCH  23  26
ENDBRANCH   2  20
TORSDOF 5
ENDMDL
MODEL 14
REMARK VINA RESULT:      -8.4      2.392     11.230
REMARK SMILES Cc1cc(NC(=O)c2ccco2)sc1C(=O)Nc1cccc([C@H]2NOC(=O)N2)c1
REMARK SMILES IDX 16 1 17 2 15 3 14 5 13 6 4 7 2 8 3 9 1 10 5 11 6 12 7 13
REMARK SMILES IDX 8 15 12 16 9 17 11 18 10 19 18 20 29 21 19 22 22 23 20 24
REMARK SMILES IDX 21 25 23 26 28 27 24 28 26 29 25 30 27 31
REMARK H PARENT 17 4 5 14 28 32 24 33
ROOT
ATOM      1  O   UNL     1     113.683 112.578  78.537  1.00  0.00    -0.268 OA
ATOM      2  N   UNL     1     114.000 114.835  79.115  1.00  0.00    -0.321 N 
ATOM      3  C   UNL     1     113.252 113.704  78.758  1.00  0.00     0.266 C 
ATOM      4  H   UNL     1     113.481 115.697  79.267  1.00  0.00     0.170 HD
ENDROOT
BRANCH   3   5
ATOM      5  C   UNL     1     111.783 113.914  78.673  1.00  0.00     0.097 A 
ATOM      6  S   UNL     1     110.748 112.558  78.828  1.00  0.00    -0.112 S 
ATOM      7  C   UNL     1     109.354 113.532  78.635  1.00  0.00     0.096 A 
ATOM      8  C   UNL     1     111.079 115.082  78.478  1.00  0.00    -0.025 A 
ATOM      9  C   UNL     1     109.671 114.861  78.457  1.00  0.00     0.042 A 
ATOM     10  C   UNL     1     111.699 116.418  78.309  1.00  0.00     0.046 C 
BRANCH   7  11
ATOM     11  N   UNL     1     108.142 112.901  78.680  1.00  0.00    -0.311 N 
ATOM     12  C   UNL     1     107.252 112.603  77.615  1.00  0.00     0.291 C 
ATOM     13  O   UNL     1     107.430 112.873  76.432  1.00  0.00    -0.265 OA
ATOM     14  H   UNL     1     107.861 112.599  79.610  1.00  0.00     0.171 HD
BRANCH  12  15
ATOM     15  C   UNL     1     106.008 111.876  77.981  1.00  0.00     0.191 A 
ATOM     16  O   UNL     1     105.600 111.926  79.276  1.00  0.00    -0.459 OA
ATOM     17  C   UNL     1     105.139 111.121  77.229  1.00  0.00     0.056 A 
ATOM     18  C   UNL     1     104.457 111.196  79.351  1.00  0.00     0.196 A 
ATOM     19  C   UNL     1     104.131 110.679  78.119  1.00  0.00     0.043 A 
ENDBRANCH  12  15
ENDBRANCH   7  11
ENDBRANCH   3   5
BRANCH   2  20
ATOM     20  C   UNL     1     115.381 114.930  79.294  1.00  0.00     0.041 A 
ATOM     21  C   UNL     1     116.048 113.996  80.086  1.00  0.00     0.033 A 
ATOM     22  C   UNL     1     116.093 115.960  78.680  1.00  0.00     0.026 A 
ATOM     23  C   UNL     1     117.428 114.092  80.266  1.00  0.00    -0.006 A 
ATOM     24  C   UNL     1     117.473 116.055  78.859  1.00  0.00     0.003 A 
ATOM     25  C   UNL     1     118.141 115.122  79.651  1.00  0.00     0.007 A 
BRANCH  23  26
ATOM     26  C   UNL     1     118.151 113.080  81.124  1.00  0.00     0.221 C 
ATOM     27  N   UNL     1     118.789 113.666  82.252  1.00  0.00    -0.298 N 
ATOM     28  N   UNL     1     119.228 112.403  80.398  1.00  0.00    -0.124 NA
ATOM     29  C   UNL     1     120.145 113.522  82.190  1.00  0.00     0.427 C 
ATOM     30  O   UNL     1     120.472 112.820  81.067  1.00  0.00    -0.351 OA
ATOM     31  O   UNL     1     120.965 113.946  82.993  1.00  0.00    -0.223 OA
ATOM     32  H   UNL     1     118.302 114.150  83.000  1.00  0.00     0.169 HD
ATOM     33  H   UNL     1     119.234 111.414  80.647  1.00  0.00     0.172 HD
ENDBRANCH  23  26
ENDBRANCH   2  20
TORSDOF 5
ENDMDL
MODEL 15
REMARK VINA RESULT:      -8.4      3.551      4.665
REMARK SMILES Cc1cc(NC(=O)c2ccco2)sc1C(=O)Nc1cccc([C@H]2NOC(=O)N2)c1
REMARK SMILES IDX 16 1 17 2 15 3 14 5 13 6 4 7 2 8 3 9 1 10 5 11 6 12 7 13
REMARK SMILES IDX 8 15 12 16 9 17 11 18 10 19 18 20 29 21 19 22 22 23 20 24
REMARK SMILES IDX 21 25 23 26 28 27 24 28 26 29 25 30 27 31
REMARK H PARENT 17 4 5 14 28 32 24 33
ROOT
ATOM      1  O   UNL     1     109.836 113.283  77.660  1.00  0.00    -0.268 OA
ATOM      2  N   UNL     1     110.112 111.012  77.118  1.00  0.00    -0.321 N 
ATOM      3  C   UNL     1     110.420 112.211  77.774  1.00  0.00     0.266 C 
ATOM      4  H   UNL     1     110.700 110.210  77.333  1.00  0.00     0.170 HD
ENDROOT
BRANCH   3   5
ATOM      5  C   UNL     1     111.563 112.143  78.723  1.00  0.00     0.097 A 
ATOM      6  S   UNL     1     113.056 112.844  78.263  1.00  0.00    -0.112 S 
ATOM      7  C   UNL     1     113.785 112.393  79.745  1.00  0.00     0.096 A 
ATOM      8  C   UNL     1     111.621 111.579  79.978  1.00  0.00    -0.025 A 
ATOM      9  C   UNL     1     112.909 111.723  80.570  1.00  0.00     0.042 A 
ATOM     10  C   UNL     1     110.486 110.898  80.646  1.00  0.00     0.046 C 
BRANCH   7  11
ATOM     11  N   UNL     1     115.097 112.736  79.924  1.00  0.00    -0.311 N 
ATOM     12  C   UNL     1     115.657 114.018  80.161  1.00  0.00     0.291 C 
ATOM     13  O   UNL     1     115.035 115.071  80.249  1.00  0.00    -0.265 OA
ATOM     14  H   UNL     1     115.743 111.951  79.893  1.00  0.00     0.171 HD
BRANCH  12  15
ATOM     15  C   UNL     1     117.132 114.067  80.343  1.00  0.00     0.191 A 
ATOM     16  O   UNL     1     117.754 112.948  80.796  1.00  0.00    -0.459 OA
ATOM     17  C   UNL     1     118.043 115.076  80.132  1.00  0.00     0.056 A 
ATOM     18  C   UNL     1     119.078 113.244  80.874  1.00  0.00     0.196 A 
ATOM     19  C   UNL     1     119.308 114.541  80.477  1.00  0.00     0.043 A 
ENDBRANCH  12  15
ENDBRANCH   7  11
ENDBRANCH   3   5
BRANCH   2  20
ATOM     20  C   UNL     1     109.087 110.773  76.201  1.00  0.00     0.041 A 
ATOM     21  C   UNL     1     109.280 111.058  74.850  1.00  0.00     0.033 A 
ATOM     22  C   UNL     1     107.871 110.249  76.637  1.00  0.00     0.026 A 
ATOM     23  C   UNL     1     108.255 110.820  73.934  1.00  0.00    -0.006 A 
ATOM     24  C   UNL     1     106.846 110.010  75.721  1.00  0.00     0.003 A 
ATOM     25  C   UNL     1     107.038 110.295  74.369  1.00  0.00     0.007 A 
BRANCH  23  26
ATOM     26  C   UNL     1     108.464 111.128  72.469  1.00  0.00     0.221 C 
ATOM     27  N   UNL     1     107.363 111.813  71.885  1.00  0.00    -0.298 N 
ATOM     28  N   UNL     1     108.618 109.916  71.661  1.00  0.00    -0.124 NA
ATOM     29  C   UNL     1     106.769 111.064  70.909  1.00  0.00     0.427 C 
ATOM     30  O   UNL     1     107.446 109.888  70.771  1.00  0.00    -0.351 OA
ATOM     31  O   UNL     1     105.784 111.368  70.251  1.00  0.00    -0.223 OA
ATOM     32  H   UNL     1     107.043 112.734  72.169  1.00  0.00     0.169 HD
ATOM     33  H   UNL     1     109.349 110.065  70.965  1.00  0.00     0.172 HD
ENDBRANCH  23  26
ENDBRANCH   2  20
TORSDOF 5
ENDMDL
