MODEL 1
REMARK VINA RESULT:     -10.9      0.000      0.000
REMARK SMILES O=C(N[C@@]12C[C@H]3C[C@@H](C1)C[C@](NC(=O)c1onc4ccccc14)(C3)C2)c1ccccn1
REMARK SMILES IDX 11 1 4 2 6 3 8 4 25 5 24 6 10 7 5 8 9 9 7 10 12 11 14 12
REMARK SMILES IDX 13 13 15 15 16 16 23 17 17 18 18 19 22 20 19 21 21 22 20 23
REMARK SMILES IDX 3 24 2 25 1 26 26 28 31 29 27 30 30 31 28 32 29 33
REMARK H PARENT 12 14 3 27
ROOT
ATOM      1  C   UNL     1     111.717 114.091  78.869  1.00  0.00     0.043 C 
ATOM      2  C   UNL     1     109.818 113.726  77.222  1.00  0.00     0.043 C 
ATOM      3  C   UNL     1     110.057 115.945  78.414  1.00  0.00    -0.006 C 
ATOM      4  C   UNL     1     109.334 113.902  79.698  1.00  0.00    -0.006 C 
ATOM      5  C   UNL     1     111.294 113.411  77.549  1.00  0.00     0.056 C 
ATOM      6  C   UNL     1     111.526 115.616  78.727  1.00  0.00     0.032 C 
ATOM      7  C   UNL     1     110.805 113.580  80.006  1.00  0.00     0.032 C 
ATOM      8  C   UNL     1     109.653 115.257  77.100  1.00  0.00     0.032 C 
ATOM      9  C   UNL     1     108.932 113.220  78.379  1.00  0.00     0.032 C 
ATOM     10  C   UNL     1     109.167 115.424  79.553  1.00  0.00     0.007 C 
ENDROOT
BRANCH   1  11
ATOM     11  N   UNL     1     113.101 113.790  79.164  1.00  0.00    -0.344 N 
ATOM     12  O   UNL     1     113.986 115.768  78.339  1.00  0.00    -0.266 OA
ATOM     13  C   UNL     1     114.129 114.669  78.868  1.00  0.00     0.290 C 
ATOM     14  H   UNL     1     113.325 112.898  79.597  1.00  0.00     0.164 HD
BRANCH  13  15
ATOM     15  C   UNL     1     115.497 114.201  79.210  1.00  0.00     0.231 A 
ATOM     16  O   UNL     1     116.076 113.274  78.403  1.00  0.00    -0.350 OA
ATOM     17  C   UNL     1     116.372 114.499  80.211  1.00  0.00     0.055 A 
ATOM     18  N   UNL     1     117.344 112.955  78.870  1.00  0.00    -0.079 NA
ATOM     19  C   UNL     1     117.543 113.694  79.976  1.00  0.00     0.114 A 
ATOM     20  C   UNL     1     116.160 115.402  81.243  1.00  0.00     0.015 A 
ATOM     21  C   UNL     1     118.648 113.768  80.843  1.00  0.00     0.032 A 
ATOM     22  C   UNL     1     117.280 115.456  82.096  1.00  0.00     0.001 A 
ATOM     23  C   UNL     1     118.467 114.679  81.906  1.00  0.00     0.002 A 
ENDBRANCH  13  15
ENDBRANCH   1  11
BRANCH   2  24
ATOM     24  N   UNL     1     109.432 113.087  75.982  1.00  0.00    -0.345 N 
ATOM     25  C   UNL     1     109.411 111.710  75.834  1.00  0.00     0.270 C 
ATOM     26  O   UNL     1     109.709 110.903  76.711  1.00  0.00    -0.267 OA
ATOM     27  H   UNL     1     109.177 113.671  75.192  1.00  0.00     0.164 HD
BRANCH  25  28
ATOM     28  C   UNL     1     109.018 111.211  74.491  1.00  0.00     0.128 A 
ATOM     29  N   UNL     1     110.004 111.178  73.566  1.00  0.00    -0.251 NA
ATOM     30  C   UNL     1     107.713 110.812  74.249  1.00  0.00     0.034 A 
ATOM     31  C   UNL     1     109.661 110.724  72.339  1.00  0.00     0.112 A 
ATOM     32  C   UNL     1     107.399 110.352  72.975  1.00  0.00     0.004 A 
ATOM     33  C   UNL     1     108.386 110.303  71.997  1.00  0.00     0.020 A 
ENDBRANCH  25  28
ENDBRANCH   2  24
TORSDOF 4
ENDMDL
MODEL 2
REMARK VINA RESULT:     -10.9      1.162      1.302
REMARK SMILES O=C(N[C@@]12C[C@H]3C[C@@H](C1)C[C@](NC(=O)c1onc4ccccc14)(C3)C2)c1ccccn1
REMARK SMILES IDX 11 1 4 2 6 3 8 4 25 5 24 6 10 7 5 8 9 9 7 10 12 11 14 12
REMARK SMILES IDX 13 13 15 15 16 16 23 17 17 18 18 19 22 20 19 21 21 22 20 23
REMARK SMILES IDX 3 24 2 25 1 26 26 28 31 29 27 30 30 31 28 32 29 33
REMARK H PARENT 12 14 3 27
ROOT
ATOM      1  C   UNL     1     111.671 114.051  78.854  1.00  0.00     0.043 C 
ATOM      2  C   UNL     1     109.936 114.157  77.002  1.00  0.00     0.043 C 
ATOM      3  C   UNL     1     109.866 115.823  78.905  1.00  0.00    -0.006 C 
ATOM      4  C   UNL     1     109.268 113.412  79.324  1.00  0.00    -0.006 C 
ATOM      5  C   UNL     1     111.412 113.853  77.346  1.00  0.00     0.056 C 
ATOM      6  C   UNL     1     111.336 115.511  79.231  1.00  0.00     0.032 C 
ATOM      7  C   UNL     1     110.740 113.108  79.647  1.00  0.00     0.032 C 
ATOM      8  C   UNL     1     109.625 115.617  77.401  1.00  0.00     0.032 C 
ATOM      9  C   UNL     1     109.030 113.213  77.818  1.00  0.00     0.032 C 
ATOM     10  C   UNL     1     108.958 114.870  79.699  1.00  0.00     0.007 C 
ENDROOT
BRANCH   1  11
ATOM     11  N   UNL     1     113.055 113.765  79.165  1.00  0.00    -0.344 N 
ATOM     12  O   UNL     1     113.926 115.760  78.365  1.00  0.00    -0.266 OA
ATOM     13  C   UNL     1     114.076 114.659  78.888  1.00  0.00     0.290 C 
ATOM     14  H   UNL     1     113.284 112.873  79.594  1.00  0.00     0.164 HD
BRANCH  13  15
ATOM     15  C   UNL     1     115.445 114.205  79.243  1.00  0.00     0.231 A 
ATOM     16  O   UNL     1     116.038 113.277  78.447  1.00  0.00    -0.350 OA
ATOM     17  C   UNL     1     116.310 114.518  80.248  1.00  0.00     0.055 A 
ATOM     18  N   UNL     1     117.305 112.973  78.925  1.00  0.00    -0.079 NA
ATOM     19  C   UNL     1     117.489 113.721  80.027  1.00  0.00     0.114 A 
ATOM     20  C   UNL     1     116.082 115.426  81.272  1.00  0.00     0.015 A 
ATOM     21  C   UNL     1     118.587 113.810  80.902  1.00  0.00     0.032 A 
ATOM     22  C   UNL     1     117.196 115.495  82.133  1.00  0.00     0.001 A 
ATOM     23  C   UNL     1     118.391 114.727  81.958  1.00  0.00     0.002 A 
ENDBRANCH  13  15
ENDBRANCH   1  11
BRANCH   2  24
ATOM     24  N   UNL     1     109.704 113.972  75.586  1.00  0.00    -0.345 N 
ATOM     25  C   UNL     1     110.002 112.786  74.935  1.00  0.00     0.270 C 
ATOM     26  O   UNL     1     110.481 111.790  75.472  1.00  0.00    -0.267 OA
ATOM     27  H   UNL     1     109.318 114.743  75.050  1.00  0.00     0.164 HD
BRANCH  25  28
ATOM     28  C   UNL     1     109.729 112.764  73.475  1.00  0.00     0.128 A 
ATOM     29  N   UNL     1     110.074 111.625  72.832  1.00  0.00    -0.251 NA
ATOM     30  C   UNL     1     109.154 113.862  72.855  1.00  0.00     0.034 A 
ATOM     31  C   UNL     1     109.830 111.590  71.502  1.00  0.00     0.112 A 
ATOM     32  C   UNL     1     108.920 113.788  71.487  1.00  0.00     0.004 A 
ATOM     33  C   UNL     1     109.260 112.634  70.790  1.00  0.00     0.020 A 
ENDBRANCH  25  28
ENDBRANCH   2  24
TORSDOF 4
ENDMDL
MODEL 3
REMARK VINA RESULT:     -10.7      1.559      2.086
REMARK SMILES O=C(N[C@@]12C[C@H]3C[C@@H](C1)C[C@](NC(=O)c1onc4ccccc14)(C3)C2)c1ccccn1
REMARK SMILES IDX 11 1 4 2 6 3 8 4 25 5 24 6 10 7 5 8 9 9 7 10 12 11 14 12
REMARK SMILES IDX 13 13 15 15 16 16 23 17 17 18 18 19 22 20 19 21 21 22 20 23
REMARK SMILES IDX 3 24 2 25 1 26 26 28 31 29 27 30 30 31 28 32 29 33
REMARK H PARENT 12 14 3 27
ROOT
ATOM      1  C   UNL     1     112.098 114.424  79.696  1.00  0.00     0.043 C 
ATOM      2  C   UNL     1     110.893 113.485  77.667  1.00  0.00     0.043 C 
ATOM      3  C   UNL     1     110.286 115.774  78.557  1.00  0.00    -0.006 C 
ATOM      4  C   UNL     1     109.675 113.712  79.871  1.00  0.00    -0.006 C 
ATOM      5  C   UNL     1     112.240 113.568  78.419  1.00  0.00     0.056 C 
ATOM      6  C   UNL     1     111.632 115.841  79.297  1.00  0.00     0.032 C 
ATOM      7  C   UNL     1     111.024 113.787  80.605  1.00  0.00     0.032 C 
ATOM      8  C   UNL     1     110.445 114.914  77.292  1.00  0.00     0.032 C 
ATOM      9  C   UNL     1     109.837 112.860  78.602  1.00  0.00     0.032 C 
ATOM     10  C   UNL     1     109.234 115.132  79.476  1.00  0.00     0.007 C 
ENDROOT
BRANCH   1  11
ATOM     11  N   UNL     1     113.364 114.496  80.392  1.00  0.00    -0.344 N 
ATOM     12  O   UNL     1     114.612 115.267  78.596  1.00  0.00    -0.266 OA
ATOM     13  C   UNL     1     114.527 114.918  79.771  1.00  0.00     0.290 C 
ATOM     14  H   UNL     1     113.400 114.219  81.369  1.00  0.00     0.164 HD
BRANCH  13  15
ATOM     15  C   UNL     1     115.749 114.911  80.615  1.00  0.00     0.231 A 
ATOM     16  O   UNL     1     115.785 115.734  81.696  1.00  0.00    -0.350 OA
ATOM     17  C   UNL     1     116.927 114.228  80.562  1.00  0.00     0.055 A 
ATOM     18  N   UNL     1     116.994 115.597  82.364  1.00  0.00    -0.079 NA
ATOM     19  C   UNL     1     117.706 114.680  81.686  1.00  0.00     0.114 A 
ATOM     20  C   UNL     1     117.286 113.288  79.607  1.00  0.00     0.015 A 
ATOM     21  C   UNL     1     118.993 114.162  81.919  1.00  0.00     0.032 A 
ATOM     22  C   UNL     1     118.578 112.785  79.864  1.00  0.00     0.001 A 
ATOM     23  C   UNL     1     119.392 113.200  80.966  1.00  0.00     0.002 A 
ENDBRANCH  13  15
ENDBRANCH   1  11
BRANCH   2  24
ATOM     24  N   UNL     1     111.037 112.683  76.470  1.00  0.00    -0.345 N 
ATOM     25  C   UNL     1     110.040 112.595  75.513  1.00  0.00     0.270 C 
ATOM     26  O   UNL     1     108.956 113.171  75.570  1.00  0.00    -0.267 OA
ATOM     27  H   UNL     1     111.896 112.159  76.335  1.00  0.00     0.164 HD
BRANCH  25  28
ATOM     28  C   UNL     1     110.331 111.710  74.356  1.00  0.00     0.128 A 
ATOM     29  N   UNL     1     109.381 111.670  73.395  1.00  0.00    -0.251 NA
ATOM     30  C   UNL     1     111.515 110.992  74.307  1.00  0.00     0.034 A 
ATOM     31  C   UNL     1     109.633 110.869  72.334  1.00  0.00     0.112 A 
ATOM     32  C   UNL     1     111.738 110.179  73.201  1.00  0.00     0.004 A 
ATOM     33  C   UNL     1     110.784 110.112  72.191  1.00  0.00     0.020 A 
ENDBRANCH  25  28
ENDBRANCH   2  24
TORSDOF 4
ENDMDL
MODEL 4
REMARK VINA RESULT:     -10.6      1.547      8.724
REMARK SMILES O=C(N[C@@]12C[C@H]3C[C@@H](C1)C[C@](NC(=O)c1onc4ccccc14)(C3)C2)c1ccccn1
REMARK SMILES IDX 11 1 4 2 6 3 8 4 25 5 24 6 10 7 5 8 9 9 7 10 12 11 14 12
REMARK SMILES IDX 13 13 15 15 16 16 23 17 17 18 18 19 22 20 19 21 21 22 20 23
REMARK SMILES IDX 3 24 2 25 1 26 26 28 31 29 27 30 30 31 28 32 29 33
REMARK H PARENT 12 14 3 27
ROOT
ATOM      1  C   UNL     1     110.710 113.553  77.457  1.00  0.00     0.043 C 
ATOM      2  C   UNL     1     112.116 114.136  79.490  1.00  0.00     0.043 C 
ATOM      3  C   UNL     1     109.702 113.435  79.775  1.00  0.00    -0.006 C 
ATOM      4  C   UNL     1     110.247 115.674  78.757  1.00  0.00    -0.006 C 
ATOM      5  C   UNL     1     112.119 113.495  78.084  1.00  0.00     0.056 C 
ATOM      6  C   UNL     1     109.724 112.798  78.374  1.00  0.00     0.032 C 
ATOM      7  C   UNL     1     110.268 115.029  77.361  1.00  0.00     0.032 C 
ATOM      8  C   UNL     1     111.113 113.372  80.382  1.00  0.00     0.032 C 
ATOM      9  C   UNL     1     111.657 115.604  79.368  1.00  0.00     0.032 C 
ATOM     10  C   UNL     1     109.266 114.904  79.656  1.00  0.00     0.007 C 
ENDROOT
BRANCH   1  11
ATOM     11  N   UNL     1     110.724 112.949  76.142  1.00  0.00    -0.344 N 
ATOM     12  O   UNL     1     108.507 113.389  75.623  1.00  0.00    -0.266 OA
ATOM     13  C   UNL     1     109.603 112.920  75.329  1.00  0.00     0.290 C 
ATOM     14  H   UNL     1     111.585 112.524  75.809  1.00  0.00     0.164 HD
BRANCH  13  15
ATOM     15  C   UNL     1     109.773 112.239  74.019  1.00  0.00     0.231 A 
ATOM     16  O   UNL     1     110.204 110.950  74.020  1.00  0.00    -0.350 OA
ATOM     17  C   UNL     1     109.589 112.626  72.727  1.00  0.00     0.055 A 
ATOM     18  N   UNL     1     110.306 110.477  72.719  1.00  0.00    -0.079 NA
ATOM     19  C   UNL     1     109.934 111.488  71.913  1.00  0.00     0.114 A 
ATOM     20  C   UNL     1     109.154 113.871  72.297  1.00  0.00     0.015 A 
ATOM     21  C   UNL     1     109.850 111.559  70.510  1.00  0.00     0.032 A 
ATOM     22  C   UNL     1     109.079 113.915  70.890  1.00  0.00     0.001 A 
ATOM     23  C   UNL     1     109.409 112.814  70.038  1.00  0.00     0.002 A 
ENDBRANCH  13  15
ENDBRANCH   1  11
BRANCH   2  24
ATOM     24  N   UNL     1     113.440 114.074  80.071  1.00  0.00    -0.345 N 
ATOM     25  C   UNL     1     114.512 114.780  79.549  1.00  0.00     0.270 C 
ATOM     26  O   UNL     1     114.459 115.513  78.565  1.00  0.00    -0.267 OA
ATOM     27  H   UNL     1     113.588 113.485  80.885  1.00  0.00     0.164 HD
BRANCH  25  28
ATOM     28  C   UNL     1     115.811 114.589  80.244  1.00  0.00     0.128 A 
ATOM     29  N   UNL     1     116.538 113.521  79.845  1.00  0.00    -0.251 NA
ATOM     30  C   UNL     1     116.212 115.477  81.230  1.00  0.00     0.034 A 
ATOM     31  C   UNL     1     117.724 113.336  80.468  1.00  0.00     0.112 A 
ATOM     32  C   UNL     1     117.437 115.252  81.848  1.00  0.00     0.004 A 
ATOM     33  C   UNL     1     118.214 114.165  81.465  1.00  0.00     0.020 A 
ENDBRANCH  25  28
ENDBRANCH   2  24
TORSDOF 4
ENDMDL
MODEL 5
REMARK VINA RESULT:     -10.4      1.210      8.865
REMARK SMILES O=C(N[C@@]12C[C@H]3C[C@@H](C1)C[C@](NC(=O)c1onc4ccccc14)(C3)C2)c1ccccn1
REMARK SMILES IDX 11 1 4 2 6 3 8 4 25 5 24 6 10 7 5 8 9 9 7 10 12 11 14 12
REMARK SMILES IDX 13 13 15 15 16 16 23 17 17 18 18 19 22 20 19 21 21 22 20 23
REMARK SMILES IDX 3 24 2 25 1 26 26 28 31 29 27 30 30 31 28 32 29 33
REMARK H PARENT 12 14 3 27
ROOT
ATOM      1  C   UNL     1     110.366 113.741  77.510  1.00  0.00     0.043 C 
ATOM      2  C   UNL     1     111.989 114.257  79.395  1.00  0.00     0.043 C 
ATOM      3  C   UNL     1     109.569 113.731  79.912  1.00  0.00    -0.006 C 
ATOM      4  C   UNL     1     110.170 115.910  78.799  1.00  0.00    -0.006 C 
ATOM      5  C   UNL     1     111.820 113.595  78.010  1.00  0.00     0.056 C 
ATOM      6  C   UNL     1     109.419 113.073  78.530  1.00  0.00     0.032 C 
ATOM      7  C   UNL     1     110.019 115.243  77.422  1.00  0.00     0.032 C 
ATOM      8  C   UNL     1     111.022 113.580  80.390  1.00  0.00     0.032 C 
ATOM      9  C   UNL     1     111.621 115.751  79.281  1.00  0.00     0.032 C 
ATOM     10  C   UNL     1     109.225 115.225  79.800  1.00  0.00     0.007 C 
ENDROOT
BRANCH   1  11
ATOM     11  N   UNL     1     110.218 113.116  76.214  1.00  0.00    -0.344 N 
ATOM     12  O   UNL     1     107.964 113.587  75.946  1.00  0.00    -0.266 OA
ATOM     13  C   UNL     1     109.011 113.094  75.536  1.00  0.00     0.290 C 
ATOM     14  H   UNL     1     111.029 112.671  75.791  1.00  0.00     0.164 HD
BRANCH  13  15
ATOM     15  C   UNL     1     109.018 112.390  74.227  1.00  0.00     0.231 A 
ATOM     16  O   UNL     1     109.889 112.818  73.276  1.00  0.00    -0.350 OA
ATOM     17  C   UNL     1     108.310 111.346  73.717  1.00  0.00     0.055 A 
ATOM     18  N   UNL     1     109.759 112.052  72.126  1.00  0.00    -0.079 NA
ATOM     19  C   UNL     1     108.797 111.145  72.376  1.00  0.00     0.114 A 
ATOM     20  C   UNL     1     107.320 110.628  74.372  1.00  0.00     0.015 A 
ATOM     21  C   UNL     1     108.264 110.127  71.565  1.00  0.00     0.032 A 
ATOM     22  C   UNL     1     106.803 109.615  73.539  1.00  0.00     0.001 A 
ATOM     23  C   UNL     1     107.252 109.375  72.202  1.00  0.00     0.002 A 
ENDBRANCH  13  15
ENDBRANCH   1  11
BRANCH   2  24
ATOM     24  N   UNL     1     113.353 114.113  79.856  1.00  0.00    -0.345 N 
ATOM     25  C   UNL     1     114.398 114.848  79.320  1.00  0.00     0.270 C 
ATOM     26  O   UNL     1     114.286 115.680  78.423  1.00  0.00    -0.267 OA
ATOM     27  H   UNL     1     113.551 113.440  80.591  1.00  0.00     0.164 HD
BRANCH  25  28
ATOM     28  C   UNL     1     115.743 114.564  79.883  1.00  0.00     0.128 A 
ATOM     29  N   UNL     1     116.468 113.632  79.226  1.00  0.00    -0.251 NA
ATOM     30  C   UNL     1     116.185 115.239  81.010  1.00  0.00     0.034 A 
ATOM     31  C   UNL     1     117.696 113.363  79.726  1.00  0.00     0.112 A 
ATOM     32  C   UNL     1     117.452 114.935  81.494  1.00  0.00     0.004 A 
ATOM     33  C   UNL     1     118.229 113.982  80.846  1.00  0.00     0.020 A 
ENDBRANCH  25  28
ENDBRANCH   2  24
TORSDOF 4
ENDMDL
MODEL 6
REMARK VINA RESULT:     -10.4      1.184      1.213
REMARK SMILES O=C(N[C@@]12C[C@H]3C[C@@H](C1)C[C@](NC(=O)c1onc4ccccc14)(C3)C2)c1ccccn1
REMARK SMILES IDX 11 1 4 2 6 3 8 4 25 5 24 6 10 7 5 8 9 9 7 10 12 11 14 12
REMARK SMILES IDX 13 13 15 15 16 16 23 17 17 18 18 19 22 20 19 21 21 22 20 23
REMARK SMILES IDX 3 24 2 25 1 26 26 28 31 29 27 30 30 31 28 32 29 33
REMARK H PARENT 12 14 3 27
ROOT
ATOM      1  C   UNL     1     111.225 114.030  78.336  1.00  0.00     0.043 C 
ATOM      2  C   UNL     1     109.179 113.854  76.842  1.00  0.00     0.043 C 
ATOM      3  C   UNL     1     109.406 115.784  78.461  1.00  0.00    -0.006 C 
ATOM      4  C   UNL     1     108.969 113.461  79.330  1.00  0.00    -0.006 C 
ATOM      5  C   UNL     1     110.700 113.608  76.947  1.00  0.00     0.056 C 
ATOM      6  C   UNL     1     110.920 115.528  78.551  1.00  0.00     0.032 C 
ATOM      7  C   UNL     1     110.483 113.213  79.417  1.00  0.00     0.032 C 
ATOM      8  C   UNL     1     108.902 115.356  77.074  1.00  0.00     0.032 C 
ATOM      9  C   UNL     1     108.465 113.040  77.940  1.00  0.00     0.032 C 
ATOM     10  C   UNL     1     108.688 114.958  79.540  1.00  0.00     0.007 C 
ENDROOT
BRANCH   1  11
ATOM     11  N   UNL     1     112.650 113.797  78.423  1.00  0.00    -0.344 N 
ATOM     12  O   UNL     1     112.894 114.458  80.633  1.00  0.00    -0.266 OA
ATOM     13  C   UNL     1     113.370 114.036  79.582  1.00  0.00     0.290 C 
ATOM     14  H   UNL     1     113.140 113.454  77.601  1.00  0.00     0.164 HD
BRANCH  13  15
ATOM     15  C   UNL     1     114.829 113.772  79.502  1.00  0.00     0.231 A 
ATOM     16  O   UNL     1     115.267 112.869  78.585  1.00  0.00    -0.350 OA
ATOM     17  C   UNL     1     115.912 114.252  80.175  1.00  0.00     0.055 A 
ATOM     18  N   UNL     1     116.648 112.749  78.649  1.00  0.00    -0.079 NA
ATOM     19  C   UNL     1     117.061 113.587  79.617  1.00  0.00     0.114 A 
ATOM     20  C   UNL     1     115.892 115.195  81.193  1.00  0.00     0.015 A 
ATOM     21  C   UNL     1     118.353 113.865  80.099  1.00  0.00     0.032 A 
ATOM     22  C   UNL     1     117.197 115.454  81.658  1.00  0.00     0.001 A 
ATOM     23  C   UNL     1     118.371 114.822  81.138  1.00  0.00     0.002 A 
ENDBRANCH  13  15
ENDBRANCH   1  11
BRANCH   2  24
ATOM     24  N   UNL     1     108.697 113.459  75.535  1.00  0.00    -0.345 N 
ATOM     25  C   UNL     1     108.774 112.153  75.081  1.00  0.00     0.270 C 
ATOM     26  O   UNL     1     109.245 111.213  75.717  1.00  0.00    -0.267 OA
ATOM     27  H   UNL     1     108.298 114.169  74.928  1.00  0.00     0.164 HD
BRANCH  25  28
ATOM     28  C   UNL     1     108.261 111.915  73.707  1.00  0.00     0.128 A 
ATOM     29  N   UNL     1     108.220 112.999  72.901  1.00  0.00    -0.251 NA
ATOM     30  C   UNL     1     107.864 110.645  73.320  1.00  0.00     0.034 A 
ATOM     31  C   UNL     1     107.756 112.798  71.647  1.00  0.00     0.112 A 
ATOM     32  C   UNL     1     107.392 110.477  72.023  1.00  0.00     0.004 A 
ATOM     33  C   UNL     1     107.335 111.569  71.164  1.00  0.00     0.020 A 
ENDBRANCH  25  28
ENDBRANCH   2  24
TORSDOF 4
ENDMDL
MODEL 7
REMARK VINA RESULT:     -10.3      1.548      8.708
REMARK SMILES O=C(N[C@@]12C[C@H]3C[C@@H](C1)C[C@](NC(=O)c1onc4ccccc14)(C3)C2)c1ccccn1
REMARK SMILES IDX 11 1 4 2 6 3 8 4 25 5 24 6 10 7 5 8 9 9 7 10 12 11 14 12
REMARK SMILES IDX 13 13 15 15 16 16 23 17 17 18 18 19 22 20 19 21 21 22 20 23
REMARK SMILES IDX 3 24 2 25 1 26 26 28 31 29 27 30 30 31 28 32 29 33
REMARK H PARENT 12 14 3 27
ROOT
ATOM      1  C   UNL     1     109.891 113.708  77.530  1.00  0.00     0.043 C 
ATOM      2  C   UNL     1     111.738 114.332  79.158  1.00  0.00     0.043 C 
ATOM      3  C   UNL     1     109.408 113.836  80.011  1.00  0.00    -0.006 C 
ATOM      4  C   UNL     1     109.846 115.948  78.708  1.00  0.00    -0.006 C 
ATOM      5  C   UNL     1     111.397 113.591  77.846  1.00  0.00     0.056 C 
ATOM      6  C   UNL     1     109.087 113.100  78.700  1.00  0.00     0.032 C 
ATOM      7  C   UNL     1     109.524 115.203  77.402  1.00  0.00     0.032 C 
ATOM      8  C   UNL     1     110.911 113.712  80.307  1.00  0.00     0.032 C 
ATOM      9  C   UNL     1     111.348 115.817  79.008  1.00  0.00     0.032 C 
ATOM     10  C   UNL     1     109.042 115.322  79.860  1.00  0.00     0.007 C 
ENDROOT
BRANCH   1  11
ATOM     11  N   UNL     1     109.582 113.010  76.301  1.00  0.00    -0.344 N 
ATOM     12  O   UNL     1     107.293 113.380  76.351  1.00  0.00    -0.266 OA
ATOM     13  C   UNL     1     108.290 112.906  75.813  1.00  0.00     0.290 C 
ATOM     14  H   UNL     1     110.341 112.575  75.784  1.00  0.00     0.164 HD
BRANCH  13  15
ATOM     15  C   UNL     1     108.137 112.135  74.553  1.00  0.00     0.231 A 
ATOM     16  O   UNL     1     107.335 111.037  74.569  1.00  0.00    -0.350 OA
ATOM     17  C   UNL     1     108.644 112.272  73.297  1.00  0.00     0.055 A 
ATOM     18  N   UNL     1     107.309 110.444  73.315  1.00  0.00    -0.079 NA
ATOM     19  C   UNL     1     108.104 111.184  72.522  1.00  0.00     0.114 A 
ATOM     20  C   UNL     1     109.508 113.269  72.866  1.00  0.00     0.015 A 
ATOM     21  C   UNL     1     108.438 111.037  71.164  1.00  0.00     0.032 A 
ATOM     22  C   UNL     1     109.826 113.099  71.503  1.00  0.00     0.001 A 
ATOM     23  C   UNL     1     109.316 112.037  70.691  1.00  0.00     0.002 A 
ENDBRANCH  13  15
ENDBRANCH   1  11
BRANCH   2  24
ATOM     24  N   UNL     1     113.151 114.213  79.447  1.00  0.00    -0.345 N 
ATOM     25  C   UNL     1     114.090 115.088  78.926  1.00  0.00     0.270 C 
ATOM     26  O   UNL     1     113.835 116.033  78.183  1.00  0.00    -0.267 OA
ATOM     27  H   UNL     1     113.464 113.455  80.046  1.00  0.00     0.164 HD
BRANCH  25  28
ATOM     28  C   UNL     1     115.502 114.816  79.296  1.00  0.00     0.128 A 
ATOM     29  N   UNL     1     116.394 115.771  78.946  1.00  0.00    -0.251 NA
ATOM     30  C   UNL     1     115.838 113.647  79.959  1.00  0.00     0.034 A 
ATOM     31  C   UNL     1     117.684 115.537  79.278  1.00  0.00     0.112 A 
ATOM     32  C   UNL     1     117.174 113.443  80.283  1.00  0.00     0.004 A 
ATOM     33  C   UNL     1     118.121 114.401  79.940  1.00  0.00     0.020 A 
ENDBRANCH  25  28
ENDBRANCH   2  24
TORSDOF 4
ENDMDL
MODEL 8
REMARK VINA RESULT:     -10.2      3.322      4.884
REMARK SMILES O=C(N[C@@]12C[C@H]3C[C@@H](C1)C[C@](NC(=O)c1onc4ccccc14)(C3)C2)c1ccccn1
REMARK SMILES IDX 11 1 4 2 6 3 8 4 25 5 24 6 10 7 5 8 9 9 7 10 12 11 14 12
REMARK SMILES IDX 13 13 15 15 16 16 23 17 17 18 18 19 22 20 19 21 21 22 20 23
REMARK SMILES IDX 3 24 2 25 1 26 26 28 31 29 27 30 30 31 28 32 29 33
REMARK H PARENT 12 14 3 27
ROOT
ATOM      1  C   UNL     1     110.450 112.330  76.581  1.00  0.00     0.043 C 
ATOM      2  C   UNL     1     107.938 111.983  76.722  1.00  0.00     0.043 C 
ATOM      3  C   UNL     1     109.190 111.350  74.617  1.00  0.00    -0.006 C 
ATOM      4  C   UNL     1     108.887 113.779  75.217  1.00  0.00    -0.006 C 
ATOM      5  C   UNL     1     109.270 111.955  77.503  1.00  0.00     0.056 C 
ATOM      6  C   UNL     1     110.507 111.324  75.411  1.00  0.00     0.032 C 
ATOM      7  C   UNL     1     110.204 113.743  76.008  1.00  0.00     0.032 C 
ATOM      8  C   UNL     1     108.027 110.979  75.552  1.00  0.00     0.032 C 
ATOM      9  C   UNL     1     107.725 113.399  76.149  1.00  0.00     0.032 C 
ATOM     10  C   UNL     1     108.962 112.765  74.062  1.00  0.00     0.007 C 
ENDROOT
BRANCH   1  11
ATOM     11  N   UNL     1     111.692 112.299  77.321  1.00  0.00    -0.344 N 
ATOM     12  O   UNL     1     111.170 114.015  78.791  1.00  0.00    -0.266 OA
ATOM     13  C   UNL     1     111.946 113.158  78.377  1.00  0.00     0.290 C 
ATOM     14  H   UNL     1     112.406 111.628  77.050  1.00  0.00     0.164 HD
BRANCH  13  15
ATOM     15  C   UNL     1     113.280 113.018  79.017  1.00  0.00     0.231 A 
ATOM     16  O   UNL     1     113.566 111.850  79.650  1.00  0.00    -0.350 OA
ATOM     17  C   UNL     1     114.361 113.839  79.130  1.00  0.00     0.055 A 
ATOM     18  N   UNL     1     114.845 111.895  80.186  1.00  0.00    -0.079 NA
ATOM     19  C   UNL     1     115.348 113.104  79.879  1.00  0.00     0.114 A 
ATOM     20  C   UNL     1     114.471 115.124  78.619  1.00  0.00     0.015 A 
ATOM     21  C   UNL     1     116.598 113.679  80.172  1.00  0.00     0.032 A 
ATOM     22  C   UNL     1     115.731 115.676  78.926  1.00  0.00     0.001 A 
ATOM     23  C   UNL     1     116.746 114.989  79.665  1.00  0.00     0.002 A 
ENDBRANCH  13  15
ENDBRANCH   1  11
BRANCH   2  24
ATOM     24  N   UNL     1     106.839 111.627  77.594  1.00  0.00    -0.345 N 
ATOM     25  C   UNL     1     105.522 111.927  77.286  1.00  0.00     0.270 C 
ATOM     26  O   UNL     1     105.151 112.508  76.270  1.00  0.00    -0.267 OA
ATOM     27  H   UNL     1     107.044 111.150  78.467  1.00  0.00     0.164 HD
BRANCH  25  28
ATOM     28  C   UNL     1     104.513 111.518  78.298  1.00  0.00     0.128 A 
ATOM     29  N   UNL     1     103.693 110.507  77.932  1.00  0.00    -0.251 NA
ATOM     30  C   UNL     1     104.455 112.160  79.525  1.00  0.00     0.034 A 
ATOM     31  C   UNL     1     102.770 110.124  78.844  1.00  0.00     0.112 A 
ATOM     32  C   UNL     1     103.492 111.737  80.435  1.00  0.00     0.004 A 
ATOM     33  C   UNL     1     102.631 110.700  80.096  1.00  0.00     0.020 A 
ENDBRANCH  25  28
ENDBRANCH   2  24
TORSDOF 4
ENDMDL
MODEL 9
REMARK VINA RESULT:     -10.0      1.456      8.652
REMARK SMILES O=C(N[C@@]12C[C@H]3C[C@@H](C1)C[C@](NC(=O)c1onc4ccccc14)(C3)C2)c1ccccn1
REMARK SMILES IDX 11 1 4 2 6 3 8 4 25 5 24 6 10 7 5 8 9 9 7 10 12 11 14 12
REMARK SMILES IDX 13 13 15 15 16 16 23 17 17 18 18 19 22 20 19 21 21 22 20 23
REMARK SMILES IDX 3 24 2 25 1 26 26 28 31 29 27 30 30 31 28 32 29 33
REMARK H PARENT 12 14 3 27
ROOT
ATOM      1  C   UNL     1     109.749 114.031  77.077  1.00  0.00     0.043 C 
ATOM      2  C   UNL     1     111.509 114.689  78.786  1.00  0.00     0.043 C 
ATOM      3  C   UNL     1     109.545 113.251  79.475  1.00  0.00    -0.006 C 
ATOM      4  C   UNL     1     109.186 115.680  78.912  1.00  0.00    -0.006 C 
ATOM      5  C   UNL     1     111.249 114.307  77.312  1.00  0.00     0.056 C 
ATOM      6  C   UNL     1     109.303 112.878  78.003  1.00  0.00     0.032 C 
ATOM      7  C   UNL     1     108.946 115.299  77.442  1.00  0.00     0.032 C 
ATOM      8  C   UNL     1     111.042 113.526  79.689  1.00  0.00     0.032 C 
ATOM      9  C   UNL     1     110.684 115.947  79.128  1.00  0.00     0.032 C 
ATOM     10  C   UNL     1     108.743 114.517  79.816  1.00  0.00     0.007 C 
ENDROOT
BRANCH   1  11
ATOM     11  N   UNL     1     109.517 113.673  75.694  1.00  0.00    -0.344 N 
ATOM     12  O   UNL     1     110.646 111.648  75.750  1.00  0.00    -0.266 OA
ATOM     13  C   UNL     1     109.994 112.495  75.145  1.00  0.00     0.290 C 
ATOM     14  H   UNL     1     108.993 114.315  75.106  1.00  0.00     0.164 HD
BRANCH  13  15
ATOM     15  C   UNL     1     109.694 112.287  73.704  1.00  0.00     0.231 A 
ATOM     16  O   UNL     1     110.403 113.005  72.794  1.00  0.00    -0.350 OA
ATOM     17  C   UNL     1     108.816 111.494  73.030  1.00  0.00     0.055 A 
ATOM     18  N   UNL     1     109.994 112.685  71.507  1.00  0.00    -0.079 NA
ATOM     19  C   UNL     1     109.023 111.763  71.630  1.00  0.00     0.114 A 
ATOM     20  C   UNL     1     107.910 110.609  73.596  1.00  0.00     0.015 A 
ATOM     21  C   UNL     1     108.262 111.096  70.653  1.00  0.00     0.032 A 
ATOM     22  C   UNL     1     107.161 109.956  72.597  1.00  0.00     0.001 A 
ATOM     23  C   UNL     1     107.328 110.185  71.194  1.00  0.00     0.002 A 
ENDBRANCH  13  15
ENDBRANCH   1  11
BRANCH   2  24
ATOM     24  N   UNL     1     112.918 114.943  78.997  1.00  0.00    -0.345 N 
ATOM     25  C   UNL     1     113.867 113.935  78.950  1.00  0.00     0.270 C 
ATOM     26  O   UNL     1     113.626 112.751  78.731  1.00  0.00    -0.267 OA
ATOM     27  H   UNL     1     113.218 115.893  79.196  1.00  0.00     0.164 HD
BRANCH  25  28
ATOM     28  C   UNL     1     115.268 114.355  79.214  1.00  0.00     0.128 A 
ATOM     29  N   UNL     1     116.160 114.062  78.241  1.00  0.00    -0.251 NA
ATOM     30  C   UNL     1     115.592 115.004  80.394  1.00  0.00     0.034 A 
ATOM     31  C   UNL     1     117.439 114.439  78.467  1.00  0.00     0.112 A 
ATOM     32  C   UNL     1     116.917 115.376  80.590  1.00  0.00     0.004 A 
ATOM     33  C   UNL     1     117.865 115.092  79.612  1.00  0.00     0.020 A 
ENDBRANCH  25  28
ENDBRANCH   2  24
TORSDOF 4
ENDMDL
MODEL 10
REMARK VINA RESULT:      -9.9      1.821      2.434
REMARK SMILES O=C(N[C@@]12C[C@H]3C[C@@H](C1)C[C@](NC(=O)c1onc4ccccc14)(C3)C2)c1ccccn1
REMARK SMILES IDX 11 1 4 2 6 3 8 4 25 5 24 6 10 7 5 8 9 9 7 10 12 11 14 12
REMARK SMILES IDX 13 13 15 15 16 16 23 17 17 18 18 19 22 20 19 21 21 22 20 23
REMARK SMILES IDX 3 24 2 25 1 26 26 28 31 29 27 30 30 31 28 32 29 33
REMARK H PARENT 12 14 3 27
ROOT
ATOM      1  C   UNL     1     110.854 113.483  77.753  1.00  0.00     0.043 C 
ATOM      2  C   UNL     1     109.077 112.488  76.234  1.00  0.00     0.043 C 
ATOM      3  C   UNL     1     108.405 113.959  78.181  1.00  0.00    -0.006 C 
ATOM      4  C   UNL     1     109.328 111.653  78.608  1.00  0.00    -0.006 C 
ATOM      5  C   UNL     1     110.505 113.074  76.306  1.00  0.00     0.056 C 
ATOM      6  C   UNL     1     109.831 114.534  78.235  1.00  0.00     0.032 C 
ATOM      7  C   UNL     1     110.749 112.237  78.660  1.00  0.00     0.032 C 
ATOM      8  C   UNL     1     108.078 113.555  76.734  1.00  0.00     0.032 C 
ATOM      9  C   UNL     1     108.997 111.257  77.160  1.00  0.00     0.032 C 
ATOM     10  C   UNL     1     108.325 112.718  79.084  1.00  0.00     0.007 C 
ENDROOT
BRANCH   1  11
ATOM     11  N   UNL     1     112.191 114.031  77.809  1.00  0.00    -0.344 N 
ATOM     12  O   UNL     1     112.195 114.496  80.081  1.00  0.00    -0.266 OA
ATOM     13  C   UNL     1     112.752 114.497  78.986  1.00  0.00     0.290 C 
ATOM     14  H   UNL     1     112.733 114.083  76.950  1.00  0.00     0.164 HD
BRANCH  13  15
ATOM     15  C   UNL     1     114.124 115.054  78.871  1.00  0.00     0.231 A 
ATOM     16  O   UNL     1     114.293 116.195  78.152  1.00  0.00    -0.350 OA
ATOM     17  C   UNL     1     115.341 114.668  79.346  1.00  0.00     0.055 A 
ATOM     18  N   UNL     1     115.629 116.570  78.151  1.00  0.00    -0.079 NA
ATOM     19  C   UNL     1     116.287 115.647  78.876  1.00  0.00     0.114 A 
ATOM     20  C   UNL     1     115.598 113.550  80.127  1.00  0.00     0.015 A 
ATOM     21  C   UNL     1     117.652 115.536  79.198  1.00  0.00     0.032 A 
ATOM     22  C   UNL     1     116.971 113.462  80.434  1.00  0.00     0.001 A 
ATOM     23  C   UNL     1     117.951 114.408  79.993  1.00  0.00     0.002 A 
ENDBRANCH  13  15
ENDBRANCH   1  11
BRANCH   2  24
ATOM     24  N   UNL     1     108.758 112.112  74.874  1.00  0.00    -0.345 N 
ATOM     25  C   UNL     1     107.464 111.832  74.466  1.00  0.00     0.270 C 
ATOM     26  O   UNL     1     106.474 111.871  75.192  1.00  0.00    -0.267 OA
ATOM     27  H   UNL     1     109.513 112.042  74.198  1.00  0.00     0.164 HD
BRANCH  25  28
ATOM     28  C   UNL     1     107.306 111.434  73.044  1.00  0.00     0.128 A 
ATOM     29  N   UNL     1     107.097 112.447  72.172  1.00  0.00    -0.251 NA
ATOM     30  C   UNL     1     107.380 110.099  72.679  1.00  0.00     0.034 A 
ATOM     31  C   UNL     1     106.953 112.100  70.873  1.00  0.00     0.112 A 
ATOM     32  C   UNL     1     107.227 109.783  71.334  1.00  0.00     0.004 A 
ATOM     33  C   UNL     1     107.010 110.796  70.407  1.00  0.00     0.020 A 
ENDBRANCH  25  28
ENDBRANCH   2  24
TORSDOF 4
ENDMDL
MODEL 11
REMARK VINA RESULT:      -9.8      3.200      5.012
REMARK SMILES O=C(N[C@@]12C[C@H]3C[C@@H](C1)C[C@](NC(=O)c1onc4ccccc14)(C3)C2)c1ccccn1
REMARK SMILES IDX 11 1 4 2 6 3 8 4 25 5 24 6 10 7 5 8 9 9 7 10 12 11 14 12
REMARK SMILES IDX 13 13 15 15 16 16 23 17 17 18 18 19 22 20 19 21 21 22 20 23
REMARK SMILES IDX 3 24 2 25 1 26 26 28 31 29 27 30 30 31 28 32 29 33
REMARK H PARENT 12 14 3 27
ROOT
ATOM      1  C   UNL     1     110.632 112.545  76.712  1.00  0.00     0.043 C 
ATOM      2  C   UNL     1     108.195 111.840  76.838  1.00  0.00     0.043 C 
ATOM      3  C   UNL     1     109.852 110.450  75.525  1.00  0.00    -0.006 C 
ATOM      4  C   UNL     1     109.152 112.713  74.666  1.00  0.00    -0.006 C 
ATOM      5  C   UNL     1     109.371 112.492  77.600  1.00  0.00     0.056 C 
ATOM      6  C   UNL     1     111.010 111.107  76.295  1.00  0.00     0.032 C 
ATOM      7  C   UNL     1     110.312 113.360  75.440  1.00  0.00     0.032 C 
ATOM      8  C   UNL     1     108.604 110.410  76.423  1.00  0.00     0.032 C 
ATOM      9  C   UNL     1     107.907 112.665  75.567  1.00  0.00     0.032 C 
ATOM     10  C   UNL     1     109.545 111.281  74.268  1.00  0.00     0.007 C 
ENDROOT
BRANCH   1  11
ATOM     11  N   UNL     1     111.727 113.155  77.434  1.00  0.00    -0.344 N 
ATOM     12  O   UNL     1     111.943 111.497  79.041  1.00  0.00    -0.266 OA
ATOM     13  C   UNL     1     112.294 112.568  78.553  1.00  0.00     0.290 C 
ATOM     14  H   UNL     1     112.085 114.050  77.113  1.00  0.00     0.164 HD
BRANCH  13  15
ATOM     15  C   UNL     1     113.391 113.333  79.198  1.00  0.00     0.231 A 
ATOM     16  O   UNL     1     113.074 114.161  80.228  1.00  0.00    -0.350 OA
ATOM     17  C   UNL     1     114.735 113.412  78.987  1.00  0.00     0.055 A 
ATOM     18  N   UNL     1     114.215 114.791  80.706  1.00  0.00    -0.079 NA
ATOM     19  C   UNL     1     115.241 114.346  79.960  1.00  0.00     0.114 A 
ATOM     20  C   UNL     1     115.455 112.720  78.024  1.00  0.00     0.015 A 
ATOM     21  C   UNL     1     116.613 114.654  80.010  1.00  0.00     0.032 A 
ATOM     22  C   UNL     1     116.825 113.047  78.097  1.00  0.00     0.001 A 
ATOM     23  C   UNL     1     117.378 113.967  79.043  1.00  0.00     0.002 A 
ENDBRANCH  13  15
ENDBRANCH   1  11
BRANCH   2  24
ATOM     24  N   UNL     1     107.018 111.793  77.679  1.00  0.00    -0.345 N 
ATOM     25  C   UNL     1     105.878 111.094  77.319  1.00  0.00     0.270 C 
ATOM     26  O   UNL     1     105.743 110.456  76.278  1.00  0.00    -0.267 OA
ATOM     27  H   UNL     1     107.028 112.298  78.560  1.00  0.00     0.164 HD
BRANCH  25  28
ATOM     28  C   UNL     1     104.747 111.165  78.279  1.00  0.00     0.128 A 
ATOM     29  N   UNL     1     103.726 110.309  78.047  1.00  0.00    -0.251 NA
ATOM     30  C   UNL     1     104.780 112.064  79.333  1.00  0.00     0.034 A 
ATOM     31  C   UNL     1     102.689 110.361  78.914  1.00  0.00     0.112 A 
ATOM     32  C   UNL     1     103.696 112.088  80.203  1.00  0.00     0.004 A 
ATOM     33  C   UNL     1     102.627 111.223  79.997  1.00  0.00     0.020 A 
ENDBRANCH  25  28
ENDBRANCH   2  24
TORSDOF 4
ENDMDL
MODEL 12
REMARK VINA RESULT:      -9.7      1.610      2.174
REMARK SMILES O=C(N[C@@]12C[C@H]3C[C@@H](C1)C[C@](NC(=O)c1onc4ccccc14)(C3)C2)c1ccccn1
REMARK SMILES IDX 11 1 4 2 6 3 8 4 25 5 24 6 10 7 5 8 9 9 7 10 12 11 14 12
REMARK SMILES IDX 13 13 15 15 16 16 23 17 17 18 18 19 22 20 19 21 21 22 20 23
REMARK SMILES IDX 3 24 2 25 1 26 26 28 31 29 27 30 30 31 28 32 29 33
REMARK H PARENT 12 14 3 27
ROOT
ATOM      1  C   UNL     1     111.157 114.081  78.865  1.00  0.00     0.043 C 
ATOM      2  C   UNL     1     109.585 114.060  76.870  1.00  0.00     0.043 C 
ATOM      3  C   UNL     1     109.161 115.636  78.804  1.00  0.00    -0.006 C 
ATOM      4  C   UNL     1     108.812 113.158  79.103  1.00  0.00    -0.006 C 
ATOM      5  C   UNL     1     111.051 113.911  77.335  1.00  0.00     0.056 C 
ATOM      6  C   UNL     1     110.624 115.479  79.250  1.00  0.00     0.032 C 
ATOM      7  C   UNL     1     110.276 113.011  79.547  1.00  0.00     0.032 C 
ATOM      8  C   UNL     1     109.074 115.459  77.279  1.00  0.00     0.032 C 
ATOM      9  C   UNL     1     108.727 112.990  77.577  1.00  0.00     0.032 C 
ATOM     10  C   UNL     1     108.304 114.558  79.488  1.00  0.00     0.007 C 
ENDROOT
BRANCH   1  11
ATOM     11  N   UNL     1     112.533 113.942  79.289  1.00  0.00    -0.344 N 
ATOM     12  O   UNL     1     113.292 115.942  78.395  1.00  0.00    -0.266 OA
ATOM     13  C   UNL     1     113.494 114.899  79.012  1.00  0.00     0.290 C 
ATOM     14  H   UNL     1     112.803 113.107  79.802  1.00  0.00     0.164 HD
BRANCH  13  15
ATOM     15  C   UNL     1     114.866 114.595  79.493  1.00  0.00     0.231 A 
ATOM     16  O   UNL     1     115.283 115.178  80.647  1.00  0.00    -0.350 OA
ATOM     17  C   UNL     1     115.879 113.817  79.019  1.00  0.00     0.055 A 
ATOM     18  N   UNL     1     116.580 114.784  80.943  1.00  0.00    -0.079 NA
ATOM     19  C   UNL     1     116.963 113.952  79.958  1.00  0.00     0.114 A 
ATOM     20  C   UNL     1     115.853 113.054  77.861  1.00  0.00     0.015 A 
ATOM     21  C   UNL     1     118.174 113.265  79.757  1.00  0.00     0.032 A 
ATOM     22  C   UNL     1     117.077 112.378  77.683  1.00  0.00     0.001 A 
ATOM     23  C   UNL     1     118.183 112.476  78.585  1.00  0.00     0.002 A 
ENDBRANCH  13  15
ENDBRANCH   1  11
BRANCH   2  24
ATOM     24  N   UNL     1     109.496 113.902  75.434  1.00  0.00    -0.345 N 
ATOM     25  C   UNL     1     109.780 112.702  74.802  1.00  0.00     0.270 C 
ATOM     26  O   UNL     1     110.127 111.671  75.372  1.00  0.00    -0.267 OA
ATOM     27  H   UNL     1     109.226 114.703  74.871  1.00  0.00     0.164 HD
BRANCH  25  28
ATOM     28  C   UNL     1     109.668 112.711  73.321  1.00  0.00     0.128 A 
ATOM     29  N   UNL     1     109.984 111.550  72.703  1.00  0.00    -0.251 NA
ATOM     30  C   UNL     1     109.260 113.857  72.658  1.00  0.00     0.034 A 
ATOM     31  C   UNL     1     109.885 111.542  71.354  1.00  0.00     0.112 A 
ATOM     32  C   UNL     1     109.171 113.809  71.271  1.00  0.00     0.004 A 
ATOM     33  C   UNL     1     109.487 112.634  70.599  1.00  0.00     0.020 A 
ENDBRANCH  25  28
ENDBRANCH   2  24
TORSDOF 4
ENDMDL
MODEL 13
REMARK VINA RESULT:      -9.4      1.939      8.770
REMARK SMILES O=C(N[C@@]12C[C@H]3C[C@@H](C1)C[C@](NC(=O)c1onc4ccccc14)(C3)C2)c1ccccn1
REMARK SMILES IDX 11 1 4 2 6 3 8 4 25 5 24 6 10 7 5 8 9 9 7 10 12 11 14 12
REMARK SMILES IDX 13 13 15 15 16 16 23 17 17 18 18 19 22 20 19 21 21 22 20 23
REMARK SMILES IDX 3 24 2 25 1 26 26 28 31 29 27 30 30 31 28 32 29 33
REMARK H PARENT 12 14 3 27
ROOT
ATOM      1  C   UNL     1     111.288 112.773  77.987  1.00  0.00     0.043 C 
ATOM      2  C   UNL     1     113.075 113.052  79.771  1.00  0.00     0.043 C 
ATOM      3  C   UNL     1     111.621 110.982  79.743  1.00  0.00    -0.006 C 
ATOM      4  C   UNL     1     110.629 113.205  80.392  1.00  0.00    -0.006 C 
ATOM      5  C   UNL     1     112.701 113.314  78.295  1.00  0.00     0.056 C 
ATOM      6  C   UNL     1     111.261 111.256  78.273  1.00  0.00     0.032 C 
ATOM      7  C   UNL     1     110.274 113.471  78.921  1.00  0.00     0.032 C 
ATOM      8  C   UNL     1     113.028 111.530  80.032  1.00  0.00     0.032 C 
ATOM      9  C   UNL     1     112.040 113.746  80.679  1.00  0.00     0.032 C 
ATOM     10  C   UNL     1     110.604 111.690  80.654  1.00  0.00     0.007 C 
ENDROOT
BRANCH   1  11
ATOM     11  N   UNL     1     110.948 113.022  76.604  1.00  0.00    -0.344 N 
ATOM     12  O   UNL     1     108.761 112.260  76.724  1.00  0.00    -0.266 OA
ATOM     13  C   UNL     1     109.695 112.739  76.087  1.00  0.00     0.290 C 
ATOM     14  H   UNL     1     111.658 113.411  75.989  1.00  0.00     0.164 HD
BRANCH  13  15
ATOM     15  C   UNL     1     109.513 113.027  74.641  1.00  0.00     0.231 A 
ATOM     16  O   UNL     1     109.040 114.251  74.287  1.00  0.00    -0.350 OA
ATOM     17  C   UNL     1     109.720 112.307  73.503  1.00  0.00     0.055 A 
ATOM     18  N   UNL     1     108.933 114.345  72.907  1.00  0.00    -0.079 NA
ATOM     19  C   UNL     1     109.344 113.165  72.409  1.00  0.00     0.114 A 
ATOM     20  C   UNL     1     110.199 111.007  73.432  1.00  0.00     0.015 A 
ATOM     21  C   UNL     1     109.442 112.715  71.080  1.00  0.00     0.032 A 
ATOM     22  C   UNL     1     110.286 110.580  72.092  1.00  0.00     0.001 A 
ATOM     23  C   UNL     1     109.927 111.393  70.970  1.00  0.00     0.002 A 
ENDBRANCH  13  15
ENDBRANCH   1  11
BRANCH   2  24
ATOM     24  N   UNL     1     114.402 113.559  80.048  1.00  0.00    -0.345 N 
ATOM     25  C   UNL     1     115.515 113.156  79.327  1.00  0.00     0.270 C 
ATOM     26  O   UNL     1     115.499 112.350  78.401  1.00  0.00    -0.267 OA
ATOM     27  H   UNL     1     114.521 114.226  80.804  1.00  0.00     0.164 HD
BRANCH  25  28
ATOM     28  C   UNL     1     116.809 113.749  79.752  1.00  0.00     0.128 A 
ATOM     29  N   UNL     1     117.127 114.933  79.181  1.00  0.00    -0.251 NA
ATOM     30  C   UNL     1     117.605 113.096  80.680  1.00  0.00     0.034 A 
ATOM     31  C   UNL     1     118.302 115.486  79.560  1.00  0.00     0.112 A 
ATOM     32  C   UNL     1     118.806 113.696  81.043  1.00  0.00     0.004 A 
ATOM     33  C   UNL     1     119.168 114.914  80.478  1.00  0.00     0.020 A 
ENDBRANCH  25  28
ENDBRANCH   2  24
TORSDOF 4
ENDMDL
MODEL 14
REMARK VINA RESULT:      -9.4      3.164      5.287
REMARK SMILES O=C(N[C@@]12C[C@H]3C[C@@H](C1)C[C@](NC(=O)c1onc4ccccc14)(C3)C2)c1ccccn1
REMARK SMILES IDX 11 1 4 2 6 3 8 4 25 5 24 6 10 7 5 8 9 9 7 10 12 11 14 12
REMARK SMILES IDX 13 13 15 15 16 16 23 17 17 18 18 19 22 20 19 21 21 22 20 23
REMARK SMILES IDX 3 24 2 25 1 26 26 28 31 29 27 30 30 31 28 32 29 33
REMARK H PARENT 12 14 3 27
ROOT
ATOM      1  C   UNL     1     110.138 112.509  76.408  1.00  0.00     0.043 C 
ATOM      2  C   UNL     1     107.645 112.040  76.265  1.00  0.00     0.043 C 
ATOM      3  C   UNL     1     109.306 110.370  75.342  1.00  0.00    -0.006 C 
ATOM      4  C   UNL     1     108.957 112.574  74.171  1.00  0.00    -0.006 C 
ATOM      5  C   UNL     1     108.774 112.668  77.113  1.00  0.00     0.056 C 
ATOM      6  C   UNL     1     110.417 111.005  76.195  1.00  0.00     0.032 C 
ATOM      7  C   UNL     1     110.068 113.200  75.029  1.00  0.00     0.032 C 
ATOM      8  C   UNL     1     107.956 110.542  76.057  1.00  0.00     0.032 C 
ATOM      9  C   UNL     1     107.609 112.738  74.890  1.00  0.00     0.032 C 
ATOM     10  C   UNL     1     109.250 111.076  73.977  1.00  0.00     0.007 C 
ENDROOT
BRANCH   1  11
ATOM     11  N   UNL     1     111.187 113.098  77.211  1.00  0.00    -0.344 N 
ATOM     12  O   UNL     1     111.309 111.397  78.782  1.00  0.00    -0.266 OA
ATOM     13  C   UNL     1     111.688 112.481  78.345  1.00  0.00     0.290 C 
ATOM     14  H   UNL     1     111.562 114.002  76.935  1.00  0.00     0.164 HD
BRANCH  13  15
ATOM     15  C   UNL     1     112.744 113.228  79.074  1.00  0.00     0.231 A 
ATOM     16  O   UNL     1     112.361 114.068  80.071  1.00  0.00    -0.350 OA
ATOM     17  C   UNL     1     114.102 113.278  78.974  1.00  0.00     0.055 A 
ATOM     18  N   UNL     1     113.471 114.678  80.638  1.00  0.00    -0.079 NA
ATOM     19  C   UNL     1     114.546 114.209  79.980  1.00  0.00     0.114 A 
ATOM     20  C   UNL     1     114.884 112.567  78.076  1.00  0.00     0.015 A 
ATOM     21  C   UNL     1     115.915 114.489  80.141  1.00  0.00     0.032 A 
ATOM     22  C   UNL     1     116.249 112.866  78.258  1.00  0.00     0.001 A 
ATOM     23  C   UNL     1     116.742 113.781  79.242  1.00  0.00     0.002 A 
ENDBRANCH  13  15
ENDBRANCH   1  11
BRANCH   2  24
ATOM     24  N   UNL     1     106.372 112.192  76.936  1.00  0.00    -0.345 N 
ATOM     25  C   UNL     1     106.147 111.713  78.216  1.00  0.00     0.270 C 
ATOM     26  O   UNL     1     106.978 111.125  78.903  1.00  0.00    -0.267 OA
ATOM     27  H   UNL     1     105.615 112.658  76.445  1.00  0.00     0.164 HD
BRANCH  25  28
ATOM     28  C   UNL     1     104.779 111.924  78.754  1.00  0.00     0.128 A 
ATOM     29  N   UNL     1     104.482 111.245  79.885  1.00  0.00    -0.251 NA
ATOM     30  C   UNL     1     103.897 112.776  78.106  1.00  0.00     0.034 A 
ATOM     31  C   UNL     1     103.240 111.429  80.387  1.00  0.00     0.112 A 
ATOM     32  C   UNL     1     102.629 112.938  78.653  1.00  0.00     0.004 A 
ATOM     33  C   UNL     1     102.287 112.257  79.815  1.00  0.00     0.020 A 
ENDBRANCH  25  28
ENDBRANCH   2  24
TORSDOF 4
ENDMDL
MODEL 15
REMARK VINA RESULT:      -8.9      1.846      8.731
REMARK SMILES O=C(N[C@@]12C[C@H]3C[C@@H](C1)C[C@](NC(=O)c1onc4ccccc14)(C3)C2)c1ccccn1
REMARK SMILES IDX 11 1 4 2 6 3 8 4 25 5 24 6 10 7 5 8 9 9 7 10 12 11 14 12
REMARK SMILES IDX 13 13 15 15 16 16 23 17 17 18 18 19 22 20 19 21 21 22 20 23
REMARK SMILES IDX 3 24 2 25 1 26 26 28 31 29 27 30 30 31 28 32 29 33
REMARK H PARENT 12 14 3 27
ROOT
ATOM      1  C   UNL     1     111.341 112.143  77.826  1.00  0.00     0.043 C 
ATOM      2  C   UNL     1     112.772 112.897  79.785  1.00  0.00     0.043 C 
ATOM      3  C   UNL     1     111.316 110.838  79.994  1.00  0.00    -0.006 C 
ATOM      4  C   UNL     1     110.255 113.121  79.892  1.00  0.00    -0.006 C 
ATOM      5  C   UNL     1     112.681 112.785  78.247  1.00  0.00     0.056 C 
ATOM      6  C   UNL     1     111.239 110.739  78.461  1.00  0.00     0.032 C 
ATOM      7  C   UNL     1     110.183 113.014  78.360  1.00  0.00     0.032 C 
ATOM      8  C   UNL     1     112.654 111.482  80.393  1.00  0.00     0.032 C 
ATOM      9  C   UNL     1     111.596 113.757  80.292  1.00  0.00     0.032 C 
ATOM     10  C   UNL     1     110.160 111.713  80.503  1.00  0.00     0.007 C 
ENDROOT
BRANCH   1  11
ATOM     11  N   UNL     1     111.267 112.041  76.385  1.00  0.00    -0.344 N 
ATOM     12  O   UNL     1     109.143 111.116  76.291  1.00  0.00    -0.266 OA
ATOM     13  C   UNL     1     110.157 111.528  75.735  1.00  0.00     0.290 C 
ATOM     14  H   UNL     1     112.062 112.350  75.832  1.00  0.00     0.164 HD
BRANCH  13  15
ATOM     15  C   UNL     1     110.247 111.466  74.253  1.00  0.00     0.231 A 
ATOM     16  O   UNL     1     110.879 110.400  73.695  1.00  0.00    -0.350 OA
ATOM     17  C   UNL     1     109.820 112.280  73.249  1.00  0.00     0.055 A 
ATOM     18  N   UNL     1     110.870 110.506  72.312  1.00  0.00    -0.079 NA
ATOM     19  C   UNL     1     110.227 111.651  72.019  1.00  0.00     0.114 A 
ATOM     20  C   UNL     1     109.130 113.474  73.399  1.00  0.00     0.015 A 
ATOM     21  C   UNL     1     109.933 112.245  70.778  1.00  0.00     0.032 A 
ATOM     22  C   UNL     1     108.849 114.049  72.143  1.00  0.00     0.001 A 
ATOM     23  C   UNL     1     109.229 113.465  70.894  1.00  0.00     0.002 A 
ENDBRANCH  13  15
ENDBRANCH   1  11
BRANCH   2  24
ATOM     24  N   UNL     1     114.031 113.496  80.169  1.00  0.00    -0.345 N 
ATOM     25  C   UNL     1     115.234 113.133  79.584  1.00  0.00     0.270 C 
ATOM     26  O   UNL     1     115.360 112.289  78.701  1.00  0.00    -0.267 OA
ATOM     27  H   UNL     1     114.033 114.201  80.900  1.00  0.00     0.164 HD
BRANCH  25  28
ATOM     28  C   UNL     1     116.441 113.822  80.108  1.00  0.00     0.128 A 
ATOM     29  N   UNL     1     117.619 113.205  79.866  1.00  0.00    -0.251 NA
ATOM     30  C   UNL     1     116.319 115.022  80.792  1.00  0.00     0.034 A 
ATOM     31  C   UNL     1     118.728 113.822  80.336  1.00  0.00     0.112 A 
ATOM     32  C   UNL     1     117.481 115.625  81.260  1.00  0.00     0.004 A 
ATOM     33  C   UNL     1     118.712 115.020  81.031  1.00  0.00     0.020 A 
ENDBRANCH  25  28
ENDBRANCH   2  24
TORSDOF 4
ENDMDL
