MODEL 1
REMARK VINA RESULT:      -8.5      0.000      0.000
REMARK SMILES C[C@@H]1C[C@@]2(CCC(=O)O2)[C@@]2(C)CC[C@H]3[C@@H]([C@H]4C[C@H]4[C@]4(O)CC(=O)CC[C@]34C)[C@@H]12
REMARK SMILES IDX 9 1 23 2 8 3 16 4 15 5 18 6 14 7 28 8 26 9 19 10 17 11 10 12
REMARK SMILES IDX 4 13 2 14 13 15 12 16 3 17 25 18 21 19 27 20 11 21 5 22
REMARK SMILES IDX 24 23 1 24 22 25 6 26 7 27 20 28
REMARK H PARENT 20 29
ROOT
ATOM      1  O   UNL     1     120.108  96.055 121.076  1.00  0.00    -0.458 OA
ATOM      2  O   UNL     1     110.446  96.598 120.700  1.00  0.00    -0.300 OA
ATOM      3  O   UNL     1     122.283  95.589 120.514  1.00  0.00    -0.252 OA
ATOM      4  C   UNL     1     115.396  95.072 123.370  1.00  0.00    -0.001 C 
ATOM      5  C   UNL     1     116.063  96.330 122.873  1.00  0.00     0.000 C 
ATOM      6  C   UNL     1     113.910  95.010 123.597  1.00  0.00     0.026 C 
ATOM      7  C   UNL     1     115.088  97.342 122.209  1.00  0.00     0.001 C 
ATOM      8  C   UNL     1     117.295  96.031 121.970  1.00  0.00     0.006 C 
ATOM      9  C   UNL     1     113.768  97.558 123.041  1.00  0.00     0.001 C 
ATOM     10  C   UNL     1     113.024  96.166 123.179  1.00  0.00     0.080 C 
ATOM     11  C   UNL     1     114.835  95.014 124.777  1.00  0.00     0.011 C 
ATOM     12  C   UNL     1     118.062  97.333 121.591  1.00  0.00     0.011 C 
ATOM     13  C   UNL     1     119.025  96.811 120.492  1.00  0.00     0.119 C 
ATOM     14  C   UNL     1     117.032  95.356 120.592  1.00  0.00    -0.006 C 
ATOM     15  C   UNL     1     115.858  98.646 121.907  1.00  0.00     0.005 C 
ATOM     16  C   UNL     1     117.091  98.405 121.035  1.00  0.00     0.011 C 
ATOM     17  C   UNL     1     118.174  95.833 119.664  1.00  0.00     0.053 C 
ATOM     18  C   UNL     1     112.788  98.572 122.356  1.00  0.00     0.018 C 
ATOM     19  C   UNL     1     112.357  95.720 121.846  1.00  0.00     0.111 C 
ATOM     20  C   UNL     1     114.078  98.230 124.410  1.00  0.00     0.015 C 
ATOM     21  C   UNL     1     118.829  97.901 122.803  1.00  0.00     0.016 C 
ATOM     22  C   UNL     1     119.740  97.858 119.655  1.00  0.00     0.061 C 
ATOM     23  C   UNL     1     112.251  98.131 121.008  1.00  0.00     0.076 C 
ATOM     24  C   UNL     1     116.971  93.831 120.624  1.00  0.00     0.008 C 
ATOM     25  C   UNL     1     111.561  96.809 121.175  1.00  0.00     0.135 C 
ATOM     26  C   UNL     1     120.975  97.127 119.179  1.00  0.00     0.127 C 
ATOM     27  C   UNL     1     121.236  96.182 120.312  1.00  0.00     0.306 C 
ENDROOT
BRANCH  10  28
ATOM     28  O   UNL     1     111.975  96.294 124.148  1.00  0.00    -0.389 OA
ATOM     29  H   UNL     1     112.372  96.249 125.034  1.00  0.00     0.211 HD
ENDBRANCH  10  28
TORSDOF 1
ENDMDL
MODEL 2
REMARK VINA RESULT:      -7.7      3.471      5.850
REMARK SMILES C[C@@H]1C[C@@]2(CCC(=O)O2)[C@@]2(C)CC[C@H]3[C@@H]([C@H]4C[C@H]4[C@]4(O)CC(=O)CC[C@]34C)[C@@H]12
REMARK SMILES IDX 9 1 23 2 8 3 16 4 15 5 18 6 14 7 28 8 26 9 19 10 17 11 10 12
REMARK SMILES IDX 4 13 2 14 13 15 12 16 3 17 25 18 21 19 27 20 11 21 5 22
REMARK SMILES IDX 24 23 1 24 22 25 6 26 7 27 20 28
REMARK H PARENT 20 29
ROOT
ATOM      1  O   UNL     1     117.986 102.626 119.349  1.00  0.00    -0.458 OA
ATOM      2  O   UNL     1     115.698  93.439 121.384  1.00  0.00    -0.300 OA
ATOM      3  O   UNL     1     118.005 104.693 118.353  1.00  0.00    -0.252 OA
ATOM      4  C   UNL     1     119.569  97.580 120.032  1.00  0.00    -0.001 C 
ATOM      5  C   UNL     1     118.837  98.563 120.911  1.00  0.00     0.000 C 
ATOM      6  C   UNL     1     119.527  96.102 120.308  1.00  0.00     0.026 C 
ATOM      7  C   UNL     1     117.725  97.923 121.788  1.00  0.00     0.001 C 
ATOM      8  C   UNL     1     118.313  99.795 120.116  1.00  0.00     0.006 C 
ATOM      9  C   UNL     1     118.193  96.596 122.498  1.00  0.00     0.001 C 
ATOM     10  C   UNL     1     118.616  95.550 121.386  1.00  0.00     0.080 C 
ATOM     11  C   UNL     1     120.796  96.861 120.554  1.00  0.00     0.011 C 
ATOM     12  C   UNL     1     117.696 100.871 121.058  1.00  0.00     0.011 C 
ATOM     13  C   UNL     1     117.008 101.814 120.035  1.00  0.00     0.119 C 
ATOM     14  C   UNL     1     117.188  99.549 119.067  1.00  0.00    -0.006 C 
ATOM     15  C   UNL     1     117.181  98.993 122.758  1.00  0.00     0.005 C 
ATOM     16  C   UNL     1     116.667 100.234 122.026  1.00  0.00     0.011 C 
ATOM     17  C   UNL     1     116.383 100.868 118.995  1.00  0.00     0.053 C 
ATOM     18  C   UNL     1     117.060  95.953 123.370  1.00  0.00     0.018 C 
ATOM     19  C   UNL     1     117.390  94.960 120.634  1.00  0.00     0.111 C 
ATOM     20  C   UNL     1     119.319  96.888 123.532  1.00  0.00     0.015 C 
ATOM     21  C   UNL     1     118.791 101.599 121.864  1.00  0.00     0.016 C 
ATOM     22  C   UNL     1     116.034 102.836 120.595  1.00  0.00     0.061 C 
ATOM     23  C   UNL     1     115.841  95.491 122.595  1.00  0.00     0.076 C 
ATOM     24  C   UNL     1     117.679  99.147 117.679  1.00  0.00     0.008 C 
ATOM     25  C   UNL     1     116.280  94.510 121.549  1.00  0.00     0.135 C 
ATOM     26  C   UNL     1     116.042 103.924 119.545  1.00  0.00     0.127 C 
ATOM     27  C   UNL     1     117.440 103.835 119.013  1.00  0.00     0.306 C 
ENDROOT
BRANCH  10  28
ATOM     28  O   UNL     1     119.289  94.451 122.014  1.00  0.00    -0.389 OA
ATOM     29  H   UNL     1     119.687  94.770 122.842  1.00  0.00     0.211 HD
ENDBRANCH  10  28
TORSDOF 1
ENDMDL
MODEL 3
REMARK VINA RESULT:      -7.7      3.514      7.135
REMARK SMILES C[C@@H]1C[C@@]2(CCC(=O)O2)[C@@]2(C)CC[C@H]3[C@@H]([C@H]4C[C@H]4[C@]4(O)CC(=O)CC[C@]34C)[C@@H]12
REMARK SMILES IDX 9 1 23 2 8 3 16 4 15 5 18 6 14 7 28 8 26 9 19 10 17 11 10 12
REMARK SMILES IDX 4 13 2 14 13 15 12 16 3 17 25 18 21 19 27 20 11 21 5 22
REMARK SMILES IDX 24 23 1 24 22 25 6 26 7 27 20 28
REMARK H PARENT 20 29
ROOT
ATOM      1  O   UNL     1     116.109 102.577 121.560  1.00  0.00    -0.458 OA
ATOM      2  O   UNL     1     123.265  96.079 120.980  1.00  0.00    -0.300 OA
ATOM      3  O   UNL     1     114.987 104.556 121.861  1.00  0.00    -0.252 OA
ATOM      4  C   UNL     1     118.157  97.903 123.109  1.00  0.00    -0.001 C 
ATOM      5  C   UNL     1     117.791  98.479 121.764  1.00  0.00     0.000 C 
ATOM      6  C   UNL     1     119.093  96.732 123.233  1.00  0.00     0.026 C 
ATOM      7  C   UNL     1     118.768  98.084 120.621  1.00  0.00     0.001 C 
ATOM      8  C   UNL     1     117.553 100.016 121.820  1.00  0.00     0.006 C 
ATOM      9  C   UNL     1     119.132  96.552 120.628  1.00  0.00     0.001 C 
ATOM     10  C   UNL     1     119.817  96.200 122.012  1.00  0.00     0.080 C 
ATOM     11  C   UNL     1     117.634  96.542 123.522  1.00  0.00     0.011 C 
ATOM     12  C   UNL     1     117.028 100.569 120.462  1.00  0.00     0.011 C 
ATOM     13  C   UNL     1     117.154 102.099 120.686  1.00  0.00     0.119 C 
ATOM     14  C   UNL     1     118.779 100.925 122.128  1.00  0.00    -0.006 C 
ATOM     15  C   UNL     1     118.189  98.584 119.280  1.00  0.00     0.005 C 
ATOM     16  C   UNL     1     117.920 100.091 119.289  1.00  0.00     0.011 C 
ATOM     17  C   UNL     1     118.490 102.273 121.428  1.00  0.00     0.053 C 
ATOM     18  C   UNL     1     120.126  96.167 119.477  1.00  0.00     0.018 C 
ATOM     19  C   UNL     1     121.266  96.756 122.111  1.00  0.00     0.111 C 
ATOM     20  C   UNL     1     117.878  95.682 120.320  1.00  0.00     0.015 C 
ATOM     21  C   UNL     1     115.567 100.143 120.214  1.00  0.00     0.016 C 
ATOM     22  C   UNL     1     117.016 102.984 119.459  1.00  0.00     0.061 C 
ATOM     23  C   UNL     1     121.490  96.823 119.567  1.00  0.00     0.076 C 
ATOM     24  C   UNL     1     119.063 101.143 123.612  1.00  0.00     0.008 C 
ATOM     25  C   UNL     1     122.104  96.475 120.891  1.00  0.00     0.135 C 
ATOM     26  C   UNL     1     116.565 104.304 120.041  1.00  0.00     0.127 C 
ATOM     27  C   UNL     1     115.780 103.866 121.240  1.00  0.00     0.306 C 
ENDROOT
BRANCH  10  28
ATOM     28  O   UNL     1     119.907  94.775 122.137  1.00  0.00    -0.389 OA
ATOM     29  H   UNL     1     119.030  94.434 122.382  1.00  0.00     0.211 HD
ENDBRANCH  10  28
TORSDOF 1
ENDMDL
MODEL 4
REMARK VINA RESULT:      -7.5     10.945     14.293
REMARK SMILES C[C@@H]1C[C@@]2(CCC(=O)O2)[C@@]2(C)CC[C@H]3[C@@H]([C@H]4C[C@H]4[C@]4(O)CC(=O)CC[C@]34C)[C@@H]12
REMARK SMILES IDX 9 1 23 2 8 3 16 4 15 5 18 6 14 7 28 8 26 9 19 10 17 11 10 12
REMARK SMILES IDX 4 13 2 14 13 15 12 16 3 17 25 18 21 19 27 20 11 21 5 22
REMARK SMILES IDX 24 23 1 24 22 25 6 26 7 27 20 28
REMARK H PARENT 20 29
ROOT
ATOM      1  O   UNL     1     103.821  94.007 120.444  1.00  0.00    -0.458 OA
ATOM      2  O   UNL     1     106.866  96.542 111.608  1.00  0.00    -0.300 OA
ATOM      3  O   UNL     1     103.603  93.918 122.727  1.00  0.00    -0.252 OA
ATOM      4  C   UNL     1     105.830  92.551 115.724  1.00  0.00    -0.001 C 
ATOM      5  C   UNL     1     104.578  93.285 116.135  1.00  0.00     0.000 C 
ATOM      6  C   UNL     1     106.360  92.630 114.318  1.00  0.00     0.026 C 
ATOM      7  C   UNL     1     104.173  94.433 115.168  1.00  0.00     0.001 C 
ATOM      8  C   UNL     1     104.628  93.761 117.615  1.00  0.00     0.006 C 
ATOM      9  C   UNL     1     104.247  94.013 113.652  1.00  0.00     0.001 C 
ATOM     10  C   UNL     1     105.735  93.582 113.318  1.00  0.00     0.080 C 
ATOM     11  C   UNL     1     105.740  91.353 114.800  1.00  0.00     0.011 C 
ATOM     12  C   UNL     1     103.272  94.380 118.069  1.00  0.00     0.011 C 
ATOM     13  C   UNL     1     103.667  95.020 119.426  1.00  0.00     0.119 C 
ATOM     14  C   UNL     1     105.666  94.861 117.984  1.00  0.00    -0.006 C 
ATOM     15  C   UNL     1     102.796  94.981 115.600  1.00  0.00     0.005 C 
ATOM     16  C   UNL     1     102.786  95.448 117.057  1.00  0.00     0.011 C 
ATOM     17  C   UNL     1     105.054  95.636 119.175  1.00  0.00     0.053 C 
ATOM     18  C   UNL     1     103.848  95.183 112.687  1.00  0.00     0.018 C 
ATOM     19  C   UNL     1     106.699  94.800 113.242  1.00  0.00     0.111 C 
ATOM     20  C   UNL     1     103.197  92.910 113.330  1.00  0.00     0.015 C 
ATOM     21  C   UNL     1     102.192  93.293 118.239  1.00  0.00     0.016 C 
ATOM     22  C   UNL     1     102.671  95.987 120.042  1.00  0.00     0.061 C 
ATOM     23  C   UNL     1     104.764  96.390 112.732  1.00  0.00     0.076 C 
ATOM     24  C   UNL     1     107.056  94.342 118.342  1.00  0.00     0.008 C 
ATOM     25  C   UNL     1     106.162  95.943 112.419  1.00  0.00     0.135 C 
ATOM     26  C   UNL     1     103.006  95.928 121.516  1.00  0.00     0.127 C 
ATOM     27  C   UNL     1     103.491  94.518 121.669  1.00  0.00     0.306 C 
ENDROOT
BRANCH  10  28
ATOM     28  O   UNL     1     105.758  92.950 112.032  1.00  0.00    -0.389 OA
ATOM     29  H   UNL     1     105.682  91.989 112.162  1.00  0.00     0.211 HD
ENDBRANCH  10  28
TORSDOF 1
ENDMDL
MODEL 5
REMARK VINA RESULT:      -7.5     12.309     15.129
REMARK SMILES C[C@@H]1C[C@@]2(CCC(=O)O2)[C@@]2(C)CC[C@H]3[C@@H]([C@H]4C[C@H]4[C@]4(O)CC(=O)CC[C@]34C)[C@@H]12
REMARK SMILES IDX 9 1 23 2 8 3 16 4 15 5 18 6 14 7 28 8 26 9 19 10 17 11 10 12
REMARK SMILES IDX 4 13 2 14 13 15 12 16 3 17 25 18 21 19 27 20 11 21 5 22
REMARK SMILES IDX 24 23 1 24 22 25 6 26 7 27 20 28
REMARK H PARENT 20 29
ROOT
ATOM      1  O   UNL     1     102.782  98.822 116.587  1.00  0.00    -0.458 OA
ATOM      2  O   UNL     1     103.886  89.840 113.138  1.00  0.00    -0.300 OA
ATOM      3  O   UNL     1     101.807 100.755 117.345  1.00  0.00    -0.252 OA
ATOM      4  C   UNL     1     104.844  95.582 112.886  1.00  0.00    -0.001 C 
ATOM      5  C   UNL     1     104.953  95.639 114.390  1.00  0.00     0.000 C 
ATOM      6  C   UNL     1     105.188  94.333 112.123  1.00  0.00     0.026 C 
ATOM      7  C   UNL     1     104.995  94.244 115.074  1.00  0.00     0.001 C 
ATOM      8  C   UNL     1     103.880  96.568 115.028  1.00  0.00     0.006 C 
ATOM      9  C   UNL     1     105.978  93.241 114.360  1.00  0.00     0.001 C 
ATOM     10  C   UNL     1     105.502  93.047 112.861  1.00  0.00     0.080 C 
ATOM     11  C   UNL     1     106.097  95.522 112.035  1.00  0.00     0.011 C 
ATOM     12  C   UNL     1     104.101  96.737 116.561  1.00  0.00     0.011 C 
ATOM     13  C   UNL     1     102.780  97.433 116.984  1.00  0.00     0.119 C 
ATOM     14  C   UNL     1     102.391  96.124 114.927  1.00  0.00    -0.006 C 
ATOM     15  C   UNL     1     105.283  94.439 116.578  1.00  0.00     0.005 C 
ATOM     16  C   UNL     1     104.264  95.360 117.251  1.00  0.00     0.011 C 
ATOM     17  C   UNL     1     101.687  96.721 116.168  1.00  0.00     0.053 C 
ATOM     18  C   UNL     1     106.003  91.834 115.052  1.00  0.00     0.018 C 
ATOM     19  C   UNL     1     104.213  92.182 112.759  1.00  0.00     0.111 C 
ATOM     20  C   UNL     1     107.451  93.726 114.482  1.00  0.00     0.015 C 
ATOM     21  C   UNL     1     105.333  97.617 116.853  1.00  0.00     0.016 C 
ATOM     22  C   UNL     1     102.487  97.496 118.473  1.00  0.00     0.061 C 
ATOM     23  C   UNL     1     104.688  91.080 115.015  1.00  0.00     0.076 C 
ATOM     24  C   UNL     1     101.676  96.554 113.649  1.00  0.00     0.008 C 
ATOM     25  C   UNL     1     104.265  90.922 113.584  1.00  0.00     0.135 C 
ATOM     26  C   UNL     1     101.568  98.692 118.589  1.00  0.00     0.127 C 
ATOM     27  C   UNL     1     102.050  99.565 117.471  1.00  0.00     0.306 C 
ENDROOT
BRANCH  10  28
ATOM     28  O   UNL     1     106.527  92.357 112.134  1.00  0.00    -0.389 OA
ATOM     29  H   UNL     1     106.690  91.504 112.571  1.00  0.00     0.211 HD
ENDBRANCH  10  28
TORSDOF 1
ENDMDL
MODEL 6
REMARK VINA RESULT:      -7.5     11.008     14.281
REMARK SMILES C[C@@H]1C[C@@]2(CCC(=O)O2)[C@@]2(C)CC[C@H]3[C@@H]([C@H]4C[C@H]4[C@]4(O)CC(=O)CC[C@]34C)[C@@H]12
REMARK SMILES IDX 9 1 23 2 8 3 16 4 15 5 18 6 14 7 28 8 26 9 19 10 17 11 10 12
REMARK SMILES IDX 4 13 2 14 13 15 12 16 3 17 25 18 21 19 27 20 11 21 5 22
REMARK SMILES IDX 24 23 1 24 22 25 6 26 7 27 20 28
REMARK H PARENT 20 29
ROOT
ATOM      1  O   UNL     1     104.021  95.879 119.647  1.00  0.00    -0.458 OA
ATOM      2  O   UNL     1     107.503  93.942 110.820  1.00  0.00    -0.300 OA
ATOM      3  O   UNL     1     103.851  96.681 121.790  1.00  0.00    -0.252 OA
ATOM      4  C   UNL     1     105.257  92.262 115.928  1.00  0.00    -0.001 C 
ATOM      5  C   UNL     1     104.353  93.469 115.938  1.00  0.00     0.000 C 
ATOM      6  C   UNL     1     105.741  91.656 114.639  1.00  0.00     0.026 C 
ATOM      7  C   UNL     1     104.348  94.266 114.604  1.00  0.00     0.001 C 
ATOM      8  C   UNL     1     104.608  94.392 117.165  1.00  0.00     0.006 C 
ATOM      9  C   UNL     1     104.226  93.338 113.337  1.00  0.00     0.001 C 
ATOM     10  C   UNL     1     105.459  92.343 113.318  1.00  0.00     0.080 C 
ATOM     11  C   UNL     1     104.728  90.920 115.463  1.00  0.00     0.011 C 
ATOM     12  C   UNL     1     103.568  95.549 117.244  1.00  0.00     0.011 C 
ATOM     13  C   UNL     1     104.201  96.454 118.334  1.00  0.00     0.119 C 
ATOM     14  C   UNL     1     105.976  95.133 117.237  1.00  0.00    -0.006 C 
ATOM     15  C   UNL     1     103.262  95.360 114.684  1.00  0.00     0.005 C 
ATOM     16  C   UNL     1     103.458  96.287 115.886  1.00  0.00     0.011 C 
ATOM     17  C   UNL     1     105.708  96.436 118.026  1.00  0.00     0.053 C 
ATOM     18  C   UNL     1     104.233  94.152 111.996  1.00  0.00     0.018 C 
ATOM     19  C   UNL     1     106.785  93.055 112.926  1.00  0.00     0.111 C 
ATOM     20  C   UNL     1     102.848  92.615 113.308  1.00  0.00     0.015 C 
ATOM     21  C   UNL     1     102.182  95.024 117.668  1.00  0.00     0.016 C 
ATOM     22  C   UNL     1     103.624  97.851 118.483  1.00  0.00     0.061 C 
ATOM     23  C   UNL     1     105.515  94.913 111.717  1.00  0.00     0.076 C 
ATOM     24  C   UNL     1     107.106  94.339 117.885  1.00  0.00     0.008 C 
ATOM     25  C   UNL     1     106.659  93.942 111.715  1.00  0.00     0.135 C 
ATOM     26  C   UNL     1     103.959  98.208 119.913  1.00  0.00     0.127 C 
ATOM     27  C   UNL     1     103.925  96.869 120.585  1.00  0.00     0.306 C 
ENDROOT
BRANCH  10  28
ATOM     28  O   UNL     1     105.223  91.329 112.333  1.00  0.00    -0.389 OA
ATOM     29  H   UNL     1     104.958  90.514 112.791  1.00  0.00     0.211 HD
ENDBRANCH  10  28
TORSDOF 1
ENDMDL
MODEL 7
REMARK VINA RESULT:      -7.4     11.737     14.952
REMARK SMILES C[C@@H]1C[C@@]2(CCC(=O)O2)[C@@]2(C)CC[C@H]3[C@@H]([C@H]4C[C@H]4[C@]4(O)CC(=O)CC[C@]34C)[C@@H]12
REMARK SMILES IDX 9 1 23 2 8 3 16 4 15 5 18 6 14 7 28 8 26 9 19 10 17 11 10 12
REMARK SMILES IDX 4 13 2 14 13 15 12 16 3 17 25 18 21 19 27 20 11 21 5 22
REMARK SMILES IDX 24 23 1 24 22 25 6 26 7 27 20 28
REMARK H PARENT 20 29
ROOT
ATOM      1  O   UNL     1     102.889  93.374 119.859  1.00  0.00    -0.458 OA
ATOM      2  O   UNL     1     105.655  98.318 112.005  1.00  0.00    -0.300 OA
ATOM      3  O   UNL     1     102.377  92.858 122.035  1.00  0.00    -0.252 OA
ATOM      4  C   UNL     1     106.093  93.764 115.614  1.00  0.00    -0.001 C 
ATOM      5  C   UNL     1     104.594  93.741 115.781  1.00  0.00     0.000 C 
ATOM      6  C   UNL     1     106.733  94.292 114.359  1.00  0.00     0.026 C 
ATOM      7  C   UNL     1     103.834  94.683 114.806  1.00  0.00     0.001 C 
ATOM      8  C   UNL     1     104.158  93.960 117.259  1.00  0.00     0.006 C 
ATOM      9  C   UNL     1     104.353  94.576 113.323  1.00  0.00     0.001 C 
ATOM     10  C   UNL     1     105.889  94.963 113.294  1.00  0.00     0.080 C 
ATOM     11  C   UNL     1     106.764  92.819 114.637  1.00  0.00     0.011 C 
ATOM     12  C   UNL     1     102.621  93.781 117.441  1.00  0.00     0.011 C 
ATOM     13  C   UNL     1     102.419  94.326 118.880  1.00  0.00     0.119 C 
ATOM     14  C   UNL     1     104.434  95.356 117.892  1.00  0.00    -0.006 C 
ATOM     15  C   UNL     1     102.318  94.435 114.958  1.00  0.00     0.005 C 
ATOM     16  C   UNL     1     101.840  94.622 116.400  1.00  0.00     0.011 C 
ATOM     17  C   UNL     1     103.334  95.560 118.960  1.00  0.00     0.053 C 
ATOM     18  C   UNL     1     103.587  95.539 112.350  1.00  0.00     0.018 C 
ATOM     19  C   UNL     1     106.115  96.490 113.483  1.00  0.00     0.111 C 
ATOM     20  C   UNL     1     104.061  93.166 112.732  1.00  0.00     0.015 C 
ATOM     21  C   UNL     1     102.215  92.298 117.326  1.00  0.00     0.016 C 
ATOM     22  C   UNL     1     100.988  94.597 119.313  1.00  0.00     0.061 C 
ATOM     23  C   UNL     1     103.759  97.016 112.646  1.00  0.00     0.076 C 
ATOM     24  C   UNL     1     105.818  95.519 118.514  1.00  0.00     0.008 C 
ATOM     25  C   UNL     1     105.223  97.344 112.619  1.00  0.00     0.135 C 
ATOM     26  C   UNL     1     101.064  94.490 120.820  1.00  0.00     0.127 C 
ATOM     27  C   UNL     1     102.153  93.479 121.008  1.00  0.00     0.306 C 
ENDROOT
BRANCH  10  28
ATOM     28  O   UNL     1     106.433  94.615 112.014  1.00  0.00    -0.389 OA
ATOM     29  H   UNL     1     105.776  94.838 111.333  1.00  0.00     0.211 HD
ENDBRANCH  10  28
TORSDOF 1
ENDMDL
MODEL 8
REMARK VINA RESULT:      -7.2     13.018     14.847
REMARK SMILES C[C@@H]1C[C@@]2(CCC(=O)O2)[C@@]2(C)CC[C@H]3[C@@H]([C@H]4C[C@H]4[C@]4(O)CC(=O)CC[C@]34C)[C@@H]12
REMARK SMILES IDX 9 1 23 2 8 3 16 4 15 5 18 6 14 7 28 8 26 9 19 10 17 11 10 12
REMARK SMILES IDX 4 13 2 14 13 15 12 16 3 17 25 18 21 19 27 20 11 21 5 22
REMARK SMILES IDX 24 23 1 24 22 25 6 26 7 27 20 28
REMARK H PARENT 20 29
ROOT
ATOM      1  O   UNL     1     105.464  94.935 111.941  1.00  0.00    -0.458 OA
ATOM      2  O   UNL     1     102.862  93.410 121.143  1.00  0.00    -0.300 OA
ATOM      3  O   UNL     1     106.720  95.464 110.095  1.00  0.00    -0.252 OA
ATOM      4  C   UNL     1     102.116  95.967 115.961  1.00  0.00    -0.001 C 
ATOM      5  C   UNL     1     102.536  94.698 115.264  1.00  0.00     0.000 C 
ATOM      6  C   UNL     1     101.477  95.938 117.323  1.00  0.00     0.026 C 
ATOM      7  C   UNL     1     102.675  93.473 116.210  1.00  0.00     0.001 C 
ATOM      8  C   UNL     1     103.802  94.897 114.380  1.00  0.00     0.006 C 
ATOM      9  C   UNL     1     101.466  93.330 117.209  1.00  0.00     0.001 C 
ATOM     10  C   UNL     1     101.385  94.639 118.097  1.00  0.00     0.080 C 
ATOM     11  C   UNL     1     100.645  96.292 116.127  1.00  0.00     0.011 C 
ATOM     12  C   UNL     1     104.132  93.621 113.549  1.00  0.00     0.011 C 
ATOM     13  C   UNL     1     105.546  93.967 113.009  1.00  0.00     0.119 C 
ATOM     14  C   UNL     1     105.144  95.211 115.104  1.00  0.00    -0.006 C 
ATOM     15  C   UNL     1     102.934  92.213 115.356  1.00  0.00     0.005 C 
ATOM     16  C   UNL     1     104.161  92.364 114.454  1.00  0.00     0.011 C 
ATOM     17  C   UNL     1     106.258  94.644 114.192  1.00  0.00     0.053 C 
ATOM     18  C   UNL     1     101.623  92.097 118.166  1.00  0.00     0.018 C 
ATOM     19  C   UNL     1     102.522  94.704 119.157  1.00  0.00     0.111 C 
ATOM     20  C   UNL     1     100.147  93.021 116.443  1.00  0.00     0.015 C 
ATOM     21  C   UNL     1     103.115  93.420 112.407  1.00  0.00     0.016 C 
ATOM     22  C   UNL     1     106.338  92.828 112.390  1.00  0.00     0.061 C 
ATOM     23  C   UNL     1     102.811  92.165 119.106  1.00  0.00     0.076 C 
ATOM     24  C   UNL     1     105.390  96.690 115.392  1.00  0.00     0.008 C 
ATOM     25  C   UNL     1     102.706  93.419 119.923  1.00  0.00     0.135 C 
ATOM     26  C   UNL     1     107.289  93.544 111.457  1.00  0.00     0.127 C 
ATOM     27  C   UNL     1     106.487  94.743 111.053  1.00  0.00     0.306 C 
ENDROOT
BRANCH  10  28
ATOM     28  O   UNL     1     100.144  94.638 118.815  1.00  0.00    -0.389 OA
ATOM     29  H   UNL     1     100.119  95.428 119.382  1.00  0.00     0.211 HD
ENDBRANCH  10  28
TORSDOF 1
ENDMDL
MODEL 9
REMARK VINA RESULT:      -7.2     12.161     15.091
REMARK SMILES C[C@@H]1C[C@@]2(CCC(=O)O2)[C@@]2(C)CC[C@H]3[C@@H]([C@H]4C[C@H]4[C@]4(O)CC(=O)CC[C@]34C)[C@@H]12
REMARK SMILES IDX 9 1 23 2 8 3 16 4 15 5 18 6 14 7 28 8 26 9 19 10 17 11 10 12
REMARK SMILES IDX 4 13 2 14 13 15 12 16 3 17 25 18 21 19 27 20 11 21 5 22
REMARK SMILES IDX 24 23 1 24 22 25 6 26 7 27 20 28
REMARK H PARENT 20 29
ROOT
ATOM      1  O   UNL     1     101.769  97.359 118.138  1.00  0.00    -0.458 OA
ATOM      2  O   UNL     1     108.811  93.258 112.907  1.00  0.00    -0.300 OA
ATOM      3  O   UNL     1     100.688  98.561 119.766  1.00  0.00    -0.252 OA
ATOM      4  C   UNL     1     103.867  92.959 115.975  1.00  0.00    -0.001 C 
ATOM      5  C   UNL     1     103.422  94.282 115.405  1.00  0.00     0.000 C 
ATOM      6  C   UNL     1     104.797  92.052 115.217  1.00  0.00     0.026 C 
ATOM      7  C   UNL     1     104.320  94.807 114.250  1.00  0.00     0.001 C 
ATOM      8  C   UNL     1     103.202  95.360 116.506  1.00  0.00     0.006 C 
ATOM      9  C   UNL     1     104.668  93.694 113.191  1.00  0.00     0.001 C 
ATOM     10  C   UNL     1     105.437  92.519 113.925  1.00  0.00     0.080 C 
ATOM     11  C   UNL     1     103.357  91.663 115.377  1.00  0.00     0.011 C 
ATOM     12  C   UNL     1     102.597  96.670 115.919  1.00  0.00     0.011 C 
ATOM     13  C   UNL     1     102.752  97.642 117.119  1.00  0.00     0.119 C 
ATOM     14  C   UNL     1     104.454  95.860 117.285  1.00  0.00    -0.006 C 
ATOM     15  C   UNL     1     103.662  96.065 113.643  1.00  0.00     0.005 C 
ATOM     16  C   UNL     1     103.408  97.151 114.690  1.00  0.00     0.011 C 
ATOM     17  C   UNL     1     104.135  97.313 117.708  1.00  0.00     0.053 C 
ATOM     18  C   UNL     1     105.584  94.232 112.037  1.00  0.00     0.018 C 
ATOM     19  C   UNL     1     106.894  92.911 114.300  1.00  0.00     0.111 C 
ATOM     20  C   UNL     1     103.389  93.222 112.440  1.00  0.00     0.015 C 
ATOM     21  C   UNL     1     101.119  96.475 115.526  1.00  0.00     0.016 C 
ATOM     22  C   UNL     1     102.545  99.119 116.834  1.00  0.00     0.061 C 
ATOM     23  C   UNL     1     106.958  94.700 112.477  1.00  0.00     0.076 C 
ATOM     24  C   UNL     1     104.833  95.020 118.501  1.00  0.00     0.008 C 
ATOM     25  C   UNL     1     107.651  93.567 113.174  1.00  0.00     0.135 C 
ATOM     26  C   UNL     1     102.144  99.673 118.183  1.00  0.00     0.127 C 
ATOM     27  C   UNL     1     101.433  98.508 118.800  1.00  0.00     0.306 C 
ENDROOT
BRANCH  10  28
ATOM     28  O   UNL     1     105.521  91.395 113.040  1.00  0.00    -0.389 OA
ATOM     29  H   UNL     1     106.443  91.306 112.746  1.00  0.00     0.211 HD
ENDBRANCH  10  28
TORSDOF 1
ENDMDL
MODEL 10
REMARK VINA RESULT:      -7.2     11.182     14.500
REMARK SMILES C[C@@H]1C[C@@]2(CCC(=O)O2)[C@@]2(C)CC[C@H]3[C@@H]([C@H]4C[C@H]4[C@]4(O)CC(=O)CC[C@]34C)[C@@H]12
REMARK SMILES IDX 9 1 23 2 8 3 16 4 15 5 18 6 14 7 28 8 26 9 19 10 17 11 10 12
REMARK SMILES IDX 4 13 2 14 13 15 12 16 3 17 25 18 21 19 27 20 11 21 5 22
REMARK SMILES IDX 24 23 1 24 22 25 6 26 7 27 20 28
REMARK H PARENT 20 29
ROOT
ATOM      1  O   UNL     1     104.741  96.832 119.681  1.00  0.00    -0.458 OA
ATOM      2  O   UNL     1     101.591  93.475 111.161  1.00  0.00    -0.300 OA
ATOM      3  O   UNL     1     104.765  97.780 121.770  1.00  0.00    -0.252 OA
ATOM      4  C   UNL     1     105.090  96.862 114.360  1.00  0.00    -0.001 C 
ATOM      5  C   UNL     1     105.208  95.776 115.399  1.00  0.00     0.000 C 
ATOM      6  C   UNL     1     104.822  96.540 112.915  1.00  0.00     0.026 C 
ATOM      7  C   UNL     1     104.599  94.414 114.962  1.00  0.00     0.001 C 
ATOM      8  C   UNL     1     104.681  96.227 116.793  1.00  0.00     0.006 C 
ATOM      9  C   UNL     1     105.011  94.001 113.498  1.00  0.00     0.001 C 
ATOM     10  C   UNL     1     104.504  95.118 112.496  1.00  0.00     0.080 C 
ATOM     11  C   UNL     1     106.177  97.039 113.318  1.00  0.00     0.011 C 
ATOM     12  C   UNL     1     104.950  95.152 117.887  1.00  0.00     0.011 C 
ATOM     13  C   UNL     1     104.097  95.695 119.064  1.00  0.00     0.119 C 
ATOM     14  C   UNL     1     103.156  96.506 116.931  1.00  0.00    -0.006 C 
ATOM     15  C   UNL     1     104.939  93.353 116.030  1.00  0.00     0.005 C 
ATOM     16  C   UNL     1     104.457  93.757 117.425  1.00  0.00     0.011 C 
ATOM     17  C   UNL     1     102.803  96.200 118.405  1.00  0.00     0.053 C 
ATOM     18  C   UNL     1     104.382  92.632 113.064  1.00  0.00     0.018 C 
ATOM     19  C   UNL     1     102.963  95.077 112.296  1.00  0.00     0.111 C 
ATOM     20  C   UNL     1     106.541  93.736 113.406  1.00  0.00     0.015 C 
ATOM     21  C   UNL     1     106.448  95.084 118.246  1.00  0.00     0.016 C 
ATOM     22  C   UNL     1     103.861  94.752 120.231  1.00  0.00     0.061 C 
ATOM     23  C   UNL     1     102.867  92.619 112.989  1.00  0.00     0.076 C 
ATOM     24  C   UNL     1     102.724  97.923 116.561  1.00  0.00     0.008 C 
ATOM     25  C   UNL     1     102.425  93.693 112.039  1.00  0.00     0.135 C 
ATOM     26  C   UNL     1     103.597  95.694 121.383  1.00  0.00     0.127 C 
ATOM     27  C   UNL     1     104.431  96.882 121.012  1.00  0.00     0.306 C 
ENDROOT
BRANCH  10  28
ATOM     28  O   UNL     1     105.098  94.893 111.210  1.00  0.00    -0.389 OA
ATOM     29  H   UNL     1     104.807  94.024 110.888  1.00  0.00     0.211 HD
ENDBRANCH  10  28
TORSDOF 1
ENDMDL
MODEL 11
REMARK VINA RESULT:      -7.1     12.095     15.255
REMARK SMILES C[C@@H]1C[C@@]2(CCC(=O)O2)[C@@]2(C)CC[C@H]3[C@@H]([C@H]4C[C@H]4[C@]4(O)CC(=O)CC[C@]34C)[C@@H]12
REMARK SMILES IDX 9 1 23 2 8 3 16 4 15 5 18 6 14 7 28 8 26 9 19 10 17 11 10 12
REMARK SMILES IDX 4 13 2 14 13 15 12 16 3 17 25 18 21 19 27 20 11 21 5 22
REMARK SMILES IDX 24 23 1 24 22 25 6 26 7 27 20 28
REMARK H PARENT 20 29
ROOT
ATOM      1  O   UNL     1     102.193  92.093 120.257  1.00  0.00    -0.458 OA
ATOM      2  O   UNL     1     106.106  97.376 113.146  1.00  0.00    -0.300 OA
ATOM      3  O   UNL     1     101.564  91.387 122.347  1.00  0.00    -0.252 OA
ATOM      4  C   UNL     1     105.411  92.350 116.012  1.00  0.00    -0.001 C 
ATOM      5  C   UNL     1     103.951  92.663 116.225  1.00  0.00     0.000 C 
ATOM      6  C   UNL     1     106.165  92.896 114.830  1.00  0.00     0.026 C 
ATOM      7  C   UNL     1     103.446  93.899 115.429  1.00  0.00     0.001 C 
ATOM      8  C   UNL     1     103.576  92.750 117.733  1.00  0.00     0.006 C 
ATOM      9  C   UNL     1     103.929  93.900 113.930  1.00  0.00     0.001 C 
ATOM     10  C   UNL     1     105.513  93.906 113.907  1.00  0.00     0.080 C 
ATOM     11  C   UNL     1     105.836  91.434 114.882  1.00  0.00     0.011 C 
ATOM     12  C   UNL     1     102.041  92.920 117.938  1.00  0.00     0.011 C 
ATOM     13  C   UNL     1     101.972  93.269 119.448  1.00  0.00     0.119 C 
ATOM     14  C   UNL     1     104.181  93.924 118.559  1.00  0.00    -0.006 C 
ATOM     15  C   UNL     1     101.915  94.003 115.594  1.00  0.00     0.005 C 
ATOM     16  C   UNL     1     101.492  94.074 117.062  1.00  0.00     0.011 C 
ATOM     17  C   UNL     1     103.159  94.219 119.682  1.00  0.00     0.053 C 
ATOM     18  C   UNL     1     103.423  95.157 113.139  1.00  0.00     0.018 C 
ATOM     19  C   UNL     1     106.103  95.286 114.315  1.00  0.00     0.111 C 
ATOM     20  C   UNL     1     103.305  92.710 113.144  1.00  0.00     0.015 C 
ATOM     21  C   UNL     1     101.288  91.615 117.615  1.00  0.00     0.016 C 
ATOM     22  C   UNL     1     100.649  93.806 119.966  1.00  0.00     0.061 C 
ATOM     23  C   UNL     1     103.948  96.485 113.648  1.00  0.00     0.076 C 
ATOM     24  C   UNL     1     105.561  93.651 119.151  1.00  0.00     0.008 C 
ATOM     25  C   UNL     1     105.448  96.451 113.621  1.00  0.00     0.135 C 
ATOM     26  C   UNL     1     100.691  93.454 121.436  1.00  0.00     0.127 C 
ATOM     27  C   UNL     1     101.501  92.193 121.433  1.00  0.00     0.306 C 
ENDROOT
BRANCH  10  28
ATOM     28  O   UNL     1     105.960  93.639 112.572  1.00  0.00    -0.389 OA
ATOM     29  H   UNL     1     105.831  94.442 112.041  1.00  0.00     0.211 HD
ENDBRANCH  10  28
TORSDOF 1
ENDMDL
MODEL 12
REMARK VINA RESULT:      -7.1     17.216     20.770
REMARK SMILES C[C@@H]1C[C@@]2(CCC(=O)O2)[C@@]2(C)CC[C@H]3[C@@H]([C@H]4C[C@H]4[C@]4(O)CC(=O)CC[C@]34C)[C@@H]12
REMARK SMILES IDX 9 1 23 2 8 3 16 4 15 5 18 6 14 7 28 8 26 9 19 10 17 11 10 12
REMARK SMILES IDX 4 13 2 14 13 15 12 16 3 17 25 18 21 19 27 20 11 21 5 22
REMARK SMILES IDX 24 23 1 24 22 25 6 26 7 27 20 28
REMARK H PARENT 20 29
ROOT
ATOM      1  O   UNL     1     120.856  84.416 111.403  1.00  0.00    -0.458 OA
ATOM      2  O   UNL     1     125.240  86.740 103.087  1.00  0.00    -0.300 OA
ATOM      3  O   UNL     1     120.071  84.538 113.556  1.00  0.00    -0.252 OA
ATOM      4  C   UNL     1     124.403  83.175 107.619  1.00  0.00    -0.001 C 
ATOM      5  C   UNL     1     122.925  83.476 107.595  1.00  0.00     0.000 C 
ATOM      6  C   UNL     1     125.240  83.260 106.373  1.00  0.00     0.026 C 
ATOM      7  C   UNL     1     122.465  84.285 106.350  1.00  0.00     0.001 C 
ATOM      8  C   UNL     1     122.428  84.118 108.923  1.00  0.00     0.006 C 
ATOM      9  C   UNL     1     123.068  83.733 105.004  1.00  0.00     0.001 C 
ATOM     10  C   UNL     1     124.648  83.806 105.089  1.00  0.00     0.080 C 
ATOM     11  C   UNL     1     124.934  81.916 106.963  1.00  0.00     0.011 C 
ATOM     12  C   UNL     1     120.878  84.281 108.941  1.00  0.00     0.011 C 
ATOM     13  C   UNL     1     120.681  85.179 110.190  1.00  0.00     0.119 C 
ATOM     14  C   UNL     1     122.942  85.546 109.270  1.00  0.00    -0.006 C 
ATOM     15  C   UNL     1     120.924  84.372 106.357  1.00  0.00     0.005 C 
ATOM     16  C   UNL     1     120.381  84.982 107.651  1.00  0.00     0.011 C 
ATOM     17  C   UNL     1     121.828  86.201 110.118  1.00  0.00     0.053 C 
ATOM     18  C   UNL     1     122.606  84.565 103.757  1.00  0.00     0.018 C 
ATOM     19  C   UNL     1     125.179  85.263 104.971  1.00  0.00     0.111 C 
ATOM     20  C   UNL     1     122.530  82.305 104.700  1.00  0.00     0.015 C 
ATOM     21  C   UNL     1     120.176  82.917 109.097  1.00  0.00     0.016 C 
ATOM     22  C   UNL     1     119.310  85.810 110.369  1.00  0.00     0.061 C 
ATOM     23  C   UNL     1     123.064  86.010 103.747  1.00  0.00     0.076 C 
ATOM     24  C   UNL     1     124.275  85.587 110.013  1.00  0.00     0.008 C 
ATOM     25  C   UNL     1     124.562  86.039 103.837  1.00  0.00     0.135 C 
ATOM     26  C   UNL     1     119.239  86.052 111.860  1.00  0.00     0.127 C 
ATOM     27  C   UNL     1     120.069  84.927 112.399  1.00  0.00     0.306 C 
ENDROOT
BRANCH  10  28
ATOM     28  O   UNL     1     125.207  83.067 103.995  1.00  0.00    -0.389 OA
ATOM     29  H   UNL     1     126.140  83.324 103.899  1.00  0.00     0.211 HD
ENDBRANCH  10  28
TORSDOF 1
ENDMDL
MODEL 13
REMARK VINA RESULT:      -7.1     11.228     14.355
REMARK SMILES C[C@@H]1C[C@@]2(CCC(=O)O2)[C@@]2(C)CC[C@H]3[C@@H]([C@H]4C[C@H]4[C@]4(O)CC(=O)CC[C@]34C)[C@@H]12
REMARK SMILES IDX 9 1 23 2 8 3 16 4 15 5 18 6 14 7 28 8 26 9 19 10 17 11 10 12
REMARK SMILES IDX 4 13 2 14 13 15 12 16 3 17 25 18 21 19 27 20 11 21 5 22
REMARK SMILES IDX 24 23 1 24 22 25 6 26 7 27 20 28
REMARK H PARENT 20 29
ROOT
ATOM      1  O   UNL     1     102.676  97.992 118.724  1.00  0.00    -0.458 OA
ATOM      2  O   UNL     1     108.799  93.343 112.835  1.00  0.00    -0.300 OA
ATOM      3  O   UNL     1     101.845  99.473 120.267  1.00  0.00    -0.252 OA
ATOM      4  C   UNL     1     104.864  93.396 117.133  1.00  0.00    -0.001 C 
ATOM      5  C   UNL     1     104.087  94.474 116.420  1.00  0.00     0.000 C 
ATOM      6  C   UNL     1     105.715  92.413 116.376  1.00  0.00     0.026 C 
ATOM      7  C   UNL     1     104.580  94.759 114.974  1.00  0.00     0.001 C 
ATOM      8  C   UNL     1     103.971  95.778 117.262  1.00  0.00     0.006 C 
ATOM      9  C   UNL     1     104.835  93.445 114.144  1.00  0.00     0.001 C 
ATOM     10  C   UNL     1     105.937  92.583 114.886  1.00  0.00     0.080 C 
ATOM     11  C   UNL     1     104.440  91.946 117.011  1.00  0.00     0.011 C 
ATOM     12  C   UNL     1     103.039  96.824 116.582  1.00  0.00     0.011 C 
ATOM     13  C   UNL     1     103.323  98.088 117.437  1.00  0.00     0.119 C 
ATOM     14  C   UNL     1     105.278  96.582 117.530  1.00  0.00    -0.006 C 
ATOM     15  C   UNL     1     103.601  95.744 114.301  1.00  0.00     0.005 C 
ATOM     16  C   UNL     1     103.438  97.039 115.100  1.00  0.00     0.011 C 
ATOM     17  C   UNL     1     104.841  98.058 117.680  1.00  0.00     0.053 C 
ATOM     18  C   UNL     1     105.344  93.744 112.691  1.00  0.00     0.018 C 
ATOM     19  C   UNL     1     107.360  93.196 114.744  1.00  0.00     0.111 C 
ATOM     20  C   UNL     1     103.505  92.673 113.905  1.00  0.00     0.015 C 
ATOM     21  C   UNL     1     101.561  96.393 116.667  1.00  0.00     0.016 C 
ATOM     22  C   UNL     1     102.818  99.412 116.890  1.00  0.00     0.061 C 
ATOM     23  C   UNL     1     106.689  94.439 112.615  1.00  0.00     0.076 C 
ATOM     24  C   UNL     1     106.072  96.131 118.753  1.00  0.00     0.008 C 
ATOM     25  C   UNL     1     107.704  93.600 113.334  1.00  0.00     0.135 C 
ATOM     26  C   UNL     1     102.673 100.261 118.133  1.00  0.00     0.127 C 
ATOM     27  C   UNL     1     102.331  99.237 119.172  1.00  0.00     0.306 C 
ENDROOT
BRANCH  10  28
ATOM     28  O   UNL     1     105.984  91.278 114.294  1.00  0.00    -0.389 OA
ATOM     29  H   UNL     1     105.777  91.364 113.349  1.00  0.00     0.211 HD
ENDBRANCH  10  28
TORSDOF 1
ENDMDL
MODEL 14
REMARK VINA RESULT:      -7.1     10.727     13.792
REMARK SMILES C[C@@H]1C[C@@]2(CCC(=O)O2)[C@@]2(C)CC[C@H]3[C@@H]([C@H]4C[C@H]4[C@]4(O)CC(=O)CC[C@]34C)[C@@H]12
REMARK SMILES IDX 9 1 23 2 8 3 16 4 15 5 18 6 14 7 28 8 26 9 19 10 17 11 10 12
REMARK SMILES IDX 4 13 2 14 13 15 12 16 3 17 25 18 21 19 27 20 11 21 5 22
REMARK SMILES IDX 24 23 1 24 22 25 6 26 7 27 20 28
REMARK H PARENT 20 29
ROOT
ATOM      1  O   UNL     1     106.163  96.845 119.379  1.00  0.00    -0.458 OA
ATOM      2  O   UNL     1     101.806  92.785 111.743  1.00  0.00    -0.300 OA
ATOM      3  O   UNL     1     106.749  98.367 120.994  1.00  0.00    -0.252 OA
ATOM      4  C   UNL     1     106.585  94.420 114.649  1.00  0.00    -0.001 C 
ATOM      5  C   UNL     1     105.934  94.037 115.954  1.00  0.00     0.000 C 
ATOM      6  C   UNL     1     106.208  93.746 113.358  1.00  0.00     0.026 C 
ATOM      7  C   UNL     1     104.592  93.269 115.790  1.00  0.00     0.001 C 
ATOM      8  C   UNL     1     105.797  95.245 116.926  1.00  0.00     0.006 C 
ATOM      9  C   UNL     1     104.670  92.125 114.710  1.00  0.00     0.001 C 
ATOM     10  C   UNL     1     105.047  92.773 113.314  1.00  0.00     0.080 C 
ATOM     11  C   UNL     1     107.548  93.466 113.971  1.00  0.00     0.011 C 
ATOM     12  C   UNL     1     105.265  94.806 118.323  1.00  0.00     0.011 C 
ATOM     13  C   UNL     1     104.948  96.178 118.975  1.00  0.00     0.119 C 
ATOM     14  C   UNL     1     104.826  96.392 116.518  1.00  0.00    -0.006 C 
ATOM     15  C   UNL     1     104.125  92.786 117.180  1.00  0.00     0.005 C 
ATOM     16  C   UNL     1     103.990  93.936 118.180  1.00  0.00     0.011 C 
ATOM     17  C   UNL     1     104.320  97.009 117.843  1.00  0.00     0.053 C 
ATOM     18  C   UNL     1     103.308  91.365 114.545  1.00  0.00     0.018 C 
ATOM     19  C   UNL     1     103.863  93.565 112.692  1.00  0.00     0.111 C 
ATOM     20  C   UNL     1     105.653  91.005 115.157  1.00  0.00     0.015 C 
ATOM     21  C   UNL     1     106.341  94.030 119.110  1.00  0.00     0.016 C 
ATOM     22  C   UNL     1     104.120  96.155 120.248  1.00  0.00     0.061 C 
ATOM     23  C   UNL     1     102.160  92.214 114.035  1.00  0.00     0.076 C 
ATOM     24  C   UNL     1     105.440  97.469 115.627  1.00  0.00     0.008 C 
ATOM     25  C   UNL     1     102.555  92.816 112.718  1.00  0.00     0.135 C 
ATOM     26  C   UNL     1     104.510  97.447 120.930  1.00  0.00     0.127 C 
ATOM     27  C   UNL     1     105.928  97.623 120.480  1.00  0.00     0.306 C 
ENDROOT
BRANCH  10  28
ATOM     28  O   UNL     1     105.381  91.727 112.391  1.00  0.00    -0.389 OA
ATOM     29  H   UNL     1     105.961  92.099 111.706  1.00  0.00     0.211 HD
ENDBRANCH  10  28
TORSDOF 1
ENDMDL
MODEL 15
REMARK VINA RESULT:      -7.0     17.267     20.225
REMARK SMILES C[C@@H]1C[C@@]2(CCC(=O)O2)[C@@]2(C)CC[C@H]3[C@@H]([C@H]4C[C@H]4[C@]4(O)CC(=O)CC[C@]34C)[C@@H]12
REMARK SMILES IDX 9 1 23 2 8 3 16 4 15 5 18 6 14 7 28 8 26 9 19 10 17 11 10 12
REMARK SMILES IDX 4 13 2 14 13 15 12 16 3 17 25 18 21 19 27 20 11 21 5 22
REMARK SMILES IDX 24 23 1 24 22 25 6 26 7 27 20 28
REMARK H PARENT 20 29
ROOT
ATOM      1  O   UNL     1     122.765  82.368 104.109  1.00  0.00    -0.458 OA
ATOM      2  O   UNL     1     121.792  84.918 113.401  1.00  0.00    -0.300 OA
ATOM      3  O   UNL     1     123.536  81.350 102.203  1.00  0.00    -0.252 OA
ATOM      4  C   UNL     1     122.566  86.233 107.778  1.00  0.00    -0.001 C 
ATOM      5  C   UNL     1     121.614  85.134 107.379  1.00  0.00     0.000 C 
ATOM      6  C   UNL     1     122.450  86.927 109.107  1.00  0.00     0.026 C 
ATOM      7  C   UNL     1     120.848  84.498 108.573  1.00  0.00     0.001 C 
ATOM      8  C   UNL     1     122.292  84.056 106.484  1.00  0.00     0.006 C 
ATOM      9  C   UNL     1     120.267  85.571 109.569  1.00  0.00     0.001 C 
ATOM     10  C   UNL     1     121.468  86.428 110.147  1.00  0.00     0.080 C 
ATOM     11  C   UNL     1     122.082  87.667 107.856  1.00  0.00     0.011 C 
ATOM     12  C   UNL     1     121.263  83.013 105.956  1.00  0.00     0.011 C 
ATOM     13  C   UNL     1     122.203  81.929 105.365  1.00  0.00     0.119 C 
ATOM     14  C   UNL     1     123.398  83.173 107.132  1.00  0.00    -0.006 C 
ATOM     15  C   UNL     1     119.789  83.521 108.018  1.00  0.00     0.005 C 
ATOM     16  C   UNL     1     120.403  82.449 107.115  1.00  0.00     0.011 C 
ATOM     17  C   UNL     1     123.357  81.824 106.376  1.00  0.00     0.053 C 
ATOM     18  C   UNL     1     119.506  84.918 110.775  1.00  0.00     0.018 C 
ATOM     19  C   UNL     1     122.319  85.630 111.176  1.00  0.00     0.111 C 
ATOM     20  C   UNL     1     119.170  86.432 108.879  1.00  0.00     0.015 C 
ATOM     21  C   UNL     1     120.347  83.628 104.879  1.00  0.00     0.016 C 
ATOM     22  C   UNL     1     121.571  80.592 105.017  1.00  0.00     0.061 C 
ATOM     23  C   UNL     1     120.366  84.064 111.686  1.00  0.00     0.076 C 
ATOM     24  C   UNL     1     124.804  83.767 107.089  1.00  0.00     0.008 C 
ATOM     25  C   UNL     1     121.495  84.904 112.207  1.00  0.00     0.135 C 
ATOM     26  C   UNL     1     122.500  80.043 103.958  1.00  0.00     0.127 C 
ATOM     27  C   UNL     1     122.991  81.293 103.294  1.00  0.00     0.306 C 
ENDROOT
BRANCH  10  28
ATOM     28  O   UNL     1     120.937  87.566 110.838  1.00  0.00    -0.389 OA
ATOM     29  H   UNL     1     120.346  88.043 110.231  1.00  0.00     0.211 HD
ENDBRANCH  10  28
TORSDOF 1
ENDMDL
