MODEL 1
REMARK VINA RESULT:     -11.1      0.000      0.000
REMARK SMILES CCOc1ccc(Cl)cc1/C=N/N1C(=O)[C@@H]2[C@H]3c4ccccc4[C@H](c4ccccc43)[C@@H]2C1=O
REMARK SMILES IDX 8 1 10 2 4 3 9 4 5 5 7 6 6 7 11 8 12 9 13 10 32 11 14 12
REMARK SMILES IDX 33 13 31 14 15 15 16 16 24 17 17 18 23 19 25 20 18 21 30 22
REMARK SMILES IDX 22 23 26 24 19 25 29 26 21 27 27 28 20 29 28 30 3 31 2 32
REMARK SMILES IDX 1 33
REMARK H PARENT
ROOT
ATOM      1  Cl  UNL     1     103.485 112.239  80.043  1.00  0.00    -0.084 Cl
ATOM      2  C   UNL     1     106.929 111.636  78.125  1.00  0.00     0.038 A 
ATOM      3  C   UNL     1     106.579 110.747  77.120  1.00  0.00     0.128 A 
ATOM      4  C   UNL     1     105.988 112.102  79.030  1.00  0.00     0.034 A 
ATOM      5  C   UNL     1     105.257 110.314  77.018  1.00  0.00     0.048 A 
ATOM      6  C   UNL     1     104.666 111.669  78.929  1.00  0.00     0.041 A 
ATOM      7  C   UNL     1     104.300 110.776  77.922  1.00  0.00     0.024 A 
ENDROOT
BRANCH   2   8
ATOM      8  C   UNL     1     108.319 112.107  78.250  1.00  0.00     0.146 C 
ATOM      9  N   UNL     1     108.730 113.193  77.681  1.00  0.00    -0.170 NA
BRANCH   9  10
ATOM     10  N   UNL     1     110.027 113.460  77.907  1.00  0.00    -0.166 N 
ATOM     11  C   UNL     1     110.430 114.455  78.769  1.00  0.00     0.254 C 
ATOM     12  C   UNL     1     111.022 112.717  77.316  1.00  0.00     0.254 C 
ATOM     13  O   UNL     1     109.734 115.210  79.432  1.00  0.00    -0.272 OA
ATOM     14  C   UNL     1     111.943 114.451  78.769  1.00  0.00     0.106 C 
ATOM     15  O   UNL     1     110.909 111.768  76.554  1.00  0.00    -0.272 OA
ATOM     16  C   UNL     1     112.340 113.286  77.796  1.00  0.00     0.106 C 
ATOM     17  C   UNL     1     112.566 114.212  80.176  1.00  0.00     0.063 C 
ATOM     18  C   UNL     1     113.235 112.249  78.535  1.00  0.00     0.063 C 
ATOM     19  C   UNL     1     114.070 114.114  79.922  1.00  0.00    -0.036 A 
ATOM     20  C   UNL     1     112.107 112.834  80.649  1.00  0.00    -0.036 A 
ATOM     21  C   UNL     1     114.431 113.058  79.039  1.00  0.00    -0.036 A 
ATOM     22  C   UNL     1     112.466 111.781  79.769  1.00  0.00    -0.036 A 
ATOM     23  C   UNL     1     115.041 114.939  80.472  1.00  0.00     0.004 A 
ATOM     24  C   UNL     1     111.403 112.572  81.815  1.00  0.00     0.004 A 
ATOM     25  C   UNL     1     115.759 112.833  78.711  1.00  0.00     0.004 A 
ATOM     26  C   UNL     1     112.120 110.468  80.058  1.00  0.00     0.004 A 
ATOM     27  C   UNL     1     116.377 114.708  80.137  1.00  0.00     0.000 A 
ATOM     28  C   UNL     1     111.055 111.251  82.102  1.00  0.00     0.000 A 
ATOM     29  C   UNL     1     116.732 113.667  79.265  1.00  0.00     0.000 A 
ATOM     30  C   UNL     1     111.410 110.209  81.231  1.00  0.00     0.000 A 
ENDBRANCH   9  10
ENDBRANCH   2   8
BRANCH   3  31
ATOM     31  O   UNL     1     107.500 110.285  76.227  1.00  0.00    -0.493 OA
BRANCH  31  32
ATOM     32  C   UNL     1     107.200 110.456  74.843  1.00  0.00     0.226 C 
ATOM     33  C   UNL     1     107.577 111.862  74.427  1.00  0.00     0.049 C 
ENDBRANCH  31  32
ENDBRANCH   3  31
TORSDOF 4
ENDMDL
MODEL 2
REMARK VINA RESULT:     -10.2      3.338      8.074
REMARK SMILES CCOc1ccc(Cl)cc1/C=N/N1C(=O)[C@@H]2[C@H]3c4ccccc4[C@H](c4ccccc43)[C@@H]2C1=O
REMARK SMILES IDX 8 1 10 2 4 3 9 4 5 5 7 6 6 7 11 8 12 9 13 10 32 11 14 12
REMARK SMILES IDX 33 13 31 14 15 15 16 16 24 17 17 18 23 19 25 20 18 21 30 22
REMARK SMILES IDX 22 23 26 24 19 25 29 26 21 27 27 28 20 29 28 30 3 31 2 32
REMARK SMILES IDX 1 33
REMARK H PARENT
ROOT
ATOM      1  Cl  UNL     1     118.184 113.245  81.312  1.00  0.00    -0.084 Cl
ATOM      2  C   UNL     1     114.957 114.121  79.140  1.00  0.00     0.038 A 
ATOM      3  C   UNL     1     115.317 115.297  78.499  1.00  0.00     0.128 A 
ATOM      4  C   UNL     1     115.829 113.480  80.007  1.00  0.00     0.034 A 
ATOM      5  C   UNL     1     116.578 115.845  78.731  1.00  0.00     0.048 A 
ATOM      6  C   UNL     1     117.090 114.028  80.239  1.00  0.00     0.041 A 
ATOM      7  C   UNL     1     117.465 115.210  79.601  1.00  0.00     0.024 A 
ENDROOT
BRANCH   2   8
ATOM      8  C   UNL     1     113.630 113.524  78.908  1.00  0.00     0.146 C 
ATOM      9  N   UNL     1     113.407 112.262  79.077  1.00  0.00    -0.170 NA
BRANCH   9  10
ATOM     10  N   UNL     1     112.138 111.901  78.818  1.00  0.00    -0.166 N 
ATOM     11  C   UNL     1     111.157 111.932  79.782  1.00  0.00     0.254 C 
ATOM     12  C   UNL     1     111.748 111.524  77.554  1.00  0.00     0.254 C 
ATOM     13  O   UNL     1     111.256 112.269  80.953  1.00  0.00    -0.272 OA
ATOM     14  C   UNL     1     109.876 111.471  79.122  1.00  0.00     0.106 C 
ATOM     15  O   UNL     1     112.425 111.459  76.538  1.00  0.00    -0.272 OA
ATOM     16  C   UNL     1     110.272 111.198  77.628  1.00  0.00     0.106 C 
ATOM     17  C   UNL     1     108.727 112.520  79.190  1.00  0.00     0.063 C 
ATOM     18  C   UNL     1     109.394 112.058  76.673  1.00  0.00     0.063 C 
ATOM     19  C   UNL     1     107.596 111.911  78.360  1.00  0.00    -0.036 A 
ATOM     20  C   UNL     1     109.201 113.765  78.443  1.00  0.00    -0.036 A 
ATOM     21  C   UNL     1     107.955 111.662  77.006  1.00  0.00    -0.036 A 
ATOM     22  C   UNL     1     109.559 113.518  77.093  1.00  0.00    -0.036 A 
ATOM     23  C   UNL     1     106.323 111.610  78.821  1.00  0.00     0.004 A 
ATOM     24  C   UNL     1     109.297 115.041  78.978  1.00  0.00     0.004 A 
ATOM     25  C   UNL     1     107.038 111.116  76.120  1.00  0.00     0.004 A 
ATOM     26  C   UNL     1     110.011 114.548  76.281  1.00  0.00     0.004 A 
ATOM     27  C   UNL     1     105.404 111.059  77.925  1.00  0.00     0.000 A 
ATOM     28  C   UNL     1     109.754 116.075  78.159  1.00  0.00     0.000 A 
ATOM     29  C   UNL     1     105.759 110.814  76.589  1.00  0.00     0.000 A 
ATOM     30  C   UNL     1     110.109 115.831  76.823  1.00  0.00     0.000 A 
ENDBRANCH   9  10
ENDBRANCH   2   8
BRANCH   3  31
ATOM     31  O   UNL     1     114.464 115.931  77.645  1.00  0.00    -0.493 OA
BRANCH  31  32
ATOM     32  C   UNL     1     114.533 117.355  77.601  1.00  0.00     0.226 C 
ATOM     33  C   UNL     1     113.126 117.915  77.617  1.00  0.00     0.049 C 
ENDBRANCH  31  32
ENDBRANCH   3  31
TORSDOF 4
ENDMDL
MODEL 3
REMARK VINA RESULT:     -10.1      3.138      8.022
REMARK SMILES CCOc1ccc(Cl)cc1/C=N/N1C(=O)[C@@H]2[C@H]3c4ccccc4[C@H](c4ccccc43)[C@@H]2C1=O
REMARK SMILES IDX 8 1 10 2 4 3 9 4 5 5 7 6 6 7 11 8 12 9 13 10 32 11 14 12
REMARK SMILES IDX 33 13 31 14 15 15 16 16 24 17 17 18 23 19 25 20 18 21 30 22
REMARK SMILES IDX 22 23 26 24 19 25 29 26 21 27 27 28 20 29 28 30 3 31 2 32
REMARK SMILES IDX 1 33
REMARK H PARENT
ROOT
ATOM      1  Cl  UNL     1     116.594 116.036  82.751  1.00  0.00    -0.084 Cl
ATOM      2  C   UNL     1     115.078 114.180  79.564  1.00  0.00     0.038 A 
ATOM      3  C   UNL     1     116.123 114.211  78.653  1.00  0.00     0.128 A 
ATOM      4  C   UNL     1     115.209 114.737  80.827  1.00  0.00     0.034 A 
ATOM      5  C   UNL     1     117.328 114.814  79.014  1.00  0.00     0.048 A 
ATOM      6  C   UNL     1     116.414 115.341  81.188  1.00  0.00     0.041 A 
ATOM      7  C   UNL     1     117.474 115.378  80.281  1.00  0.00     0.024 A 
ENDROOT
BRANCH   2   8
ATOM      8  C   UNL     1     113.797 113.547  79.204  1.00  0.00     0.146 C 
ATOM      9  N   UNL     1     113.528 112.320  79.512  1.00  0.00    -0.170 NA
BRANCH   9  10
ATOM     10  N   UNL     1     112.314 111.918  79.101  1.00  0.00    -0.166 N 
ATOM     11  C   UNL     1     111.246 111.814  79.964  1.00  0.00     0.254 C 
ATOM     12  C   UNL     1     112.067 111.630  77.778  1.00  0.00     0.254 C 
ATOM     13  O   UNL     1     111.214 112.053  81.161  1.00  0.00    -0.272 OA
ATOM     14  C   UNL     1     110.063 111.345  79.145  1.00  0.00     0.106 C 
ATOM     15  O   UNL     1     112.839 111.689  76.833  1.00  0.00    -0.272 OA
ATOM     16  C   UNL     1     110.613 111.223  77.680  1.00  0.00     0.106 C 
ATOM     17  C   UNL     1     108.851 112.322  79.184  1.00  0.00     0.063 C 
ATOM     18  C   UNL     1     109.778 112.115  76.716  1.00  0.00     0.063 C 
ATOM     19  C   UNL     1     107.843 111.729  78.200  1.00  0.00    -0.036 A 
ATOM     20  C   UNL     1     109.317 113.650  78.591  1.00  0.00    -0.036 A 
ATOM     21  C   UNL     1     108.341 111.617  76.872  1.00  0.00    -0.036 A 
ATOM     22  C   UNL     1     109.815 113.539  77.267  1.00  0.00    -0.036 A 
ATOM     23  C   UNL     1     106.552 111.324  78.508  1.00  0.00     0.004 A 
ATOM     24  C   UNL     1     109.286 114.879  79.234  1.00  0.00     0.004 A 
ATOM     25  C   UNL     1     107.546 111.102  75.859  1.00  0.00     0.004 A 
ATOM     26  C   UNL     1     110.278 114.658  76.589  1.00  0.00     0.004 A 
ATOM     27  C   UNL     1     105.756 110.804  77.484  1.00  0.00     0.000 A 
ATOM     28  C   UNL     1     109.754 116.002  78.550  1.00  0.00     0.000 A 
ATOM     29  C   UNL     1     106.248 110.694  76.174  1.00  0.00     0.000 A 
ATOM     30  C   UNL     1     110.246 115.893  77.240  1.00  0.00     0.000 A 
ENDBRANCH   9  10
ENDBRANCH   2   8
BRANCH   3  31
ATOM     31  O   UNL     1     116.000 113.664  77.411  1.00  0.00    -0.493 OA
BRANCH  31  32
ATOM     32  C   UNL     1     116.216 112.259  77.298  1.00  0.00     0.226 C 
ATOM     33  C   UNL     1     117.706 111.988  77.310  1.00  0.00     0.049 C 
ENDBRANCH  31  32
ENDBRANCH   3  31
TORSDOF 4
ENDMDL
MODEL 4
REMARK VINA RESULT:     -10.0      1.082      1.276
REMARK SMILES CCOc1ccc(Cl)cc1/C=N/N1C(=O)[C@@H]2[C@H]3c4ccccc4[C@H](c4ccccc43)[C@@H]2C1=O
REMARK SMILES IDX 8 1 10 2 4 3 9 4 5 5 7 6 6 7 11 8 12 9 13 10 32 11 14 12
REMARK SMILES IDX 33 13 31 14 15 15 16 16 24 17 17 18 23 19 25 20 18 21 30 22
REMARK SMILES IDX 22 23 26 24 19 25 29 26 21 27 27 28 20 29 28 30 3 31 2 32
REMARK SMILES IDX 1 33
REMARK H PARENT
ROOT
ATOM      1  Cl  UNL     1     104.441 111.411  78.791  1.00  0.00    -0.084 Cl
ATOM      2  C   UNL     1     108.120 111.434  77.254  1.00  0.00     0.038 A 
ATOM      3  C   UNL     1     107.967 110.753  76.056  1.00  0.00     0.128 A 
ATOM      4  C   UNL     1     107.045 111.643  78.104  1.00  0.00     0.034 A 
ATOM      5  C   UNL     1     106.709 110.269  75.700  1.00  0.00     0.048 A 
ATOM      6  C   UNL     1     105.787 111.159  77.748  1.00  0.00     0.041 A 
ATOM      7  C   UNL     1     105.618 110.472  76.545  1.00  0.00     0.024 A 
ENDROOT
BRANCH   2   8
ATOM      8  C   UNL     1     109.441 111.955  77.649  1.00  0.00     0.146 C 
ATOM      9  N   UNL     1     109.975 112.981  77.071  1.00  0.00    -0.170 NA
BRANCH   9  10
ATOM     10  N   UNL     1     111.181 113.308  77.565  1.00  0.00    -0.166 N 
ATOM     11  C   UNL     1     111.361 114.387  78.401  1.00  0.00     0.254 C 
ATOM     12  C   UNL     1     112.295 112.549  77.291  1.00  0.00     0.254 C 
ATOM     13  O   UNL     1     110.523 115.173  78.814  1.00  0.00    -0.272 OA
ATOM     14  C   UNL     1     112.833 114.431  78.751  1.00  0.00     0.106 C 
ATOM     15  O   UNL     1     112.372 111.534  76.614  1.00  0.00    -0.272 OA
ATOM     16  C   UNL     1     113.458 113.199  78.008  1.00  0.00     0.106 C 
ATOM     17  C   UNL     1     113.113 114.334  80.279  1.00  0.00     0.063 C 
ATOM     18  C   UNL     1     114.168 112.259  79.026  1.00  0.00     0.063 C 
ATOM     19  C   UNL     1     114.637 114.263  80.390  1.00  0.00    -0.036 A 
ATOM     20  C   UNL     1     112.572 112.989  80.759  1.00  0.00    -0.036 A 
ATOM     21  C   UNL     1     115.204 113.146  79.715  1.00  0.00    -0.036 A 
ATOM     22  C   UNL     1     113.137 111.875  80.086  1.00  0.00    -0.036 A 
ATOM     23  C   UNL     1     115.444 115.163  81.071  1.00  0.00     0.004 A 
ATOM     24  C   UNL     1     111.619 112.807  81.749  1.00  0.00     0.004 A 
ATOM     25  C   UNL     1     116.575 112.936  79.725  1.00  0.00     0.004 A 
ATOM     26  C   UNL     1     112.748 110.583  80.406  1.00  0.00     0.004 A 
ATOM     27  C   UNL     1     116.824 114.947  81.076  1.00  0.00     0.000 A 
ATOM     28  C   UNL     1     111.228 111.506  82.068  1.00  0.00     0.000 A 
ATOM     29  C   UNL     1     117.383 113.845  80.410  1.00  0.00     0.000 A 
ATOM     30  C   UNL     1     111.787 110.404  81.403  1.00  0.00     0.000 A 
ENDBRANCH   9  10
ENDBRANCH   2   8
BRANCH   3  31
ATOM     31  O   UNL     1     109.021 110.545  75.216  1.00  0.00    -0.493 OA
BRANCH  31  32
ATOM     32  C   UNL     1     108.872 110.992  73.870  1.00  0.00     0.226 C 
ATOM     33  C   UNL     1     108.762 112.502  73.862  1.00  0.00     0.049 C 
ENDBRANCH  31  32
ENDBRANCH   3  31
TORSDOF 4
ENDMDL
MODEL 5
REMARK VINA RESULT:     -10.0      3.314      8.016
REMARK SMILES CCOc1ccc(Cl)cc1/C=N/N1C(=O)[C@@H]2[C@H]3c4ccccc4[C@H](c4ccccc43)[C@@H]2C1=O
REMARK SMILES IDX 8 1 10 2 4 3 9 4 5 5 7 6 6 7 11 8 12 9 13 10 32 11 14 12
REMARK SMILES IDX 33 13 31 14 15 15 16 16 24 17 17 18 23 19 25 20 18 21 30 22
REMARK SMILES IDX 22 23 26 24 19 25 29 26 21 27 27 28 20 29 28 30 3 31 2 32
REMARK SMILES IDX 1 33
REMARK H PARENT
ROOT
ATOM      1  Cl  UNL     1     116.311 118.241  77.117  1.00  0.00    -0.084 Cl
ATOM      2  C   UNL     1     114.029 115.362  78.669  1.00  0.00     0.038 A 
ATOM      3  C   UNL     1     114.907 114.671  79.491  1.00  0.00     0.128 A 
ATOM      4  C   UNL     1     114.448 116.461  77.934  1.00  0.00     0.034 A 
ATOM      5  C   UNL     1     116.235 115.089  79.579  1.00  0.00     0.048 A 
ATOM      6  C   UNL     1     115.775 116.878  78.022  1.00  0.00     0.041 A 
ATOM      7  C   UNL     1     116.669 116.193  78.845  1.00  0.00     0.024 A 
ENDROOT
BRANCH   2   8
ATOM      8  C   UNL     1     112.622 114.938  78.562  1.00  0.00     0.146 C 
ATOM      9  N   UNL     1     111.653 115.791  78.487  1.00  0.00    -0.170 NA
BRANCH   9  10
ATOM     10  N   UNL     1     110.441 115.219  78.395  1.00  0.00    -0.166 N 
ATOM     11  C   UNL     1     109.631 115.392  77.296  1.00  0.00     0.254 C 
ATOM     12  C   UNL     1     109.966 114.391  79.385  1.00  0.00     0.254 C 
ATOM     13  O   UNL     1     109.854 116.042  76.285  1.00  0.00    -0.272 OA
ATOM     14  C   UNL     1     108.368 114.599  77.550  1.00  0.00     0.106 C 
ATOM     15  O   UNL     1     110.516 114.059  80.425  1.00  0.00    -0.272 OA
ATOM     16  C   UNL     1     108.593 113.927  78.950  1.00  0.00     0.106 C 
ATOM     17  C   UNL     1     108.086 113.512  76.472  1.00  0.00     0.063 C 
ATOM     18  C   UNL     1     108.464 112.380  78.831  1.00  0.00     0.063 C 
ATOM     19  C   UNL     1     106.862 112.758  76.991  1.00  0.00    -0.036 A 
ATOM     20  C   UNL     1     109.255 112.529  76.500  1.00  0.00    -0.036 A 
ATOM     21  C   UNL     1     107.065 112.149  78.261  1.00  0.00    -0.036 A 
ATOM     22  C   UNL     1     109.458 111.921  77.766  1.00  0.00    -0.036 A 
ATOM     23  C   UNL     1     105.645 112.638  76.336  1.00  0.00     0.004 A 
ATOM     24  C   UNL     1     110.076 112.217  75.427  1.00  0.00     0.004 A 
ATOM     25  C   UNL     1     106.051 111.423  78.868  1.00  0.00     0.004 A 
ATOM     26  C   UNL     1     110.482 111.004  77.955  1.00  0.00     0.004 A 
ATOM     27  C   UNL     1     104.627 111.907  76.952  1.00  0.00     0.000 A 
ATOM     28  C   UNL     1     111.107 111.296  75.620  1.00  0.00     0.000 A 
ATOM     29  C   UNL     1     104.828 111.307  78.205  1.00  0.00     0.000 A 
ATOM     30  C   UNL     1     111.308 110.695  76.872  1.00  0.00     0.000 A 
ENDBRANCH   9  10
ENDBRANCH   2   8
BRANCH   3  31
ATOM     31  O   UNL     1     114.502 113.591  80.216  1.00  0.00    -0.493 OA
BRANCH  31  32
ATOM     32  C   UNL     1     114.527 112.325  79.560  1.00  0.00     0.226 C 
ATOM     33  C   UNL     1     113.535 111.401  80.234  1.00  0.00     0.049 C 
ENDBRANCH  31  32
ENDBRANCH   3  31
TORSDOF 4
ENDMDL
MODEL 6
REMARK VINA RESULT:      -9.8      3.189      8.066
REMARK SMILES CCOc1ccc(Cl)cc1/C=N/N1C(=O)[C@@H]2[C@H]3c4ccccc4[C@H](c4ccccc43)[C@@H]2C1=O
REMARK SMILES IDX 8 1 10 2 4 3 9 4 5 5 7 6 6 7 11 8 12 9 13 10 32 11 14 12
REMARK SMILES IDX 33 13 31 14 15 15 16 16 24 17 17 18 23 19 25 20 18 21 30 22
REMARK SMILES IDX 22 23 26 24 19 25 29 26 21 27 27 28 20 29 28 30 3 31 2 32
REMARK SMILES IDX 1 33
REMARK H PARENT
ROOT
ATOM      1  Cl  UNL     1     117.928 111.942  77.535  1.00  0.00    -0.084 Cl
ATOM      2  C   UNL     1     114.341 113.475  78.360  1.00  0.00     0.038 A 
ATOM      3  C   UNL     1     114.633 114.776  78.741  1.00  0.00     0.128 A 
ATOM      4  C   UNL     1     115.344 112.593  77.987  1.00  0.00     0.034 A 
ATOM      5  C   UNL     1     115.960 115.205  78.750  1.00  0.00     0.048 A 
ATOM      6  C   UNL     1     116.671 113.022  77.996  1.00  0.00     0.041 A 
ATOM      7  C   UNL     1     116.979 114.329  78.376  1.00  0.00     0.024 A 
ENDROOT
BRANCH   2   8
ATOM      8  C   UNL     1     112.946 113.001  78.344  1.00  0.00     0.146 C 
ATOM      9  N   UNL     1     112.645 111.750  78.481  1.00  0.00    -0.170 NA
BRANCH   9  10
ATOM     10  N   UNL     1     111.324 111.509  78.439  1.00  0.00    -0.166 N 
ATOM     11  C   UNL     1     110.478 111.888  79.457  1.00  0.00     0.254 C 
ATOM     12  C   UNL     1     110.743 110.905  77.348  1.00  0.00     0.254 C 
ATOM     13  O   UNL     1     110.755 112.469  80.495  1.00  0.00    -0.272 OA
ATOM     14  C   UNL     1     109.084 111.459  79.054  1.00  0.00     0.106 C 
ATOM     15  O   UNL     1     111.279 110.521  76.319  1.00  0.00    -0.272 OA
ATOM     16  C   UNL     1     109.261 110.801  77.640  1.00  0.00     0.106 C 
ATOM     17  C   UNL     1     108.067 112.635  78.975  1.00  0.00     0.063 C 
ATOM     18  C   UNL     1     108.366 111.525  76.594  1.00  0.00     0.063 C 
ATOM     19  C   UNL     1     106.786 112.004  78.429  1.00  0.00    -0.036 A 
ATOM     20  C   UNL     1     108.572 113.603  77.907  1.00  0.00    -0.036 A 
ATOM     21  C   UNL     1     106.946 111.407  77.148  1.00  0.00    -0.036 A 
ATOM     22  C   UNL     1     108.733 113.008  76.629  1.00  0.00    -0.036 A 
ATOM     23  C   UNL     1     105.555 111.986  79.069  1.00  0.00     0.004 A 
ATOM     24  C   UNL     1     108.866 114.944  78.104  1.00  0.00     0.004 A 
ATOM     25  C   UNL     1     105.875 110.796  76.513  1.00  0.00     0.004 A 
ATOM     26  C   UNL     1     109.185 113.756  75.551  1.00  0.00     0.004 A 
ATOM     27  C   UNL     1     104.480 111.368  78.426  1.00  0.00     0.000 A 
ATOM     28  C   UNL     1     109.323 115.694  77.019  1.00  0.00     0.000 A 
ATOM     29  C   UNL     1     104.639 110.779  77.161  1.00  0.00     0.000 A 
ATOM     30  C   UNL     1     109.482 115.105  75.754  1.00  0.00     0.000 A 
ENDBRANCH   9  10
ENDBRANCH   2   8
BRANCH   3  31
ATOM     31  O   UNL     1     113.651 115.647  79.108  1.00  0.00    -0.493 OA
BRANCH  31  32
ATOM     32  C   UNL     1     112.813 116.151  78.070  1.00  0.00     0.226 C 
ATOM     33  C   UNL     1     113.302 117.526  77.668  1.00  0.00     0.049 C 
ENDBRANCH  31  32
ENDBRANCH   3  31
TORSDOF 4
ENDMDL
MODEL 7
REMARK VINA RESULT:      -9.4      3.423      7.999
REMARK SMILES CCOc1ccc(Cl)cc1/C=N/N1C(=O)[C@@H]2[C@H]3c4ccccc4[C@H](c4ccccc43)[C@@H]2C1=O
REMARK SMILES IDX 8 1 10 2 4 3 9 4 5 5 7 6 6 7 11 8 12 9 13 10 32 11 14 12
REMARK SMILES IDX 33 13 31 14 15 15 16 16 24 17 17 18 23 19 25 20 18 21 30 22
REMARK SMILES IDX 22 23 26 24 19 25 29 26 21 27 27 28 20 29 28 30 3 31 2 32
REMARK SMILES IDX 1 33
REMARK H PARENT
ROOT
ATOM      1  Cl  UNL     1     116.964 116.008  82.715  1.00  0.00    -0.084 Cl
ATOM      2  C   UNL     1     114.790 114.508  79.728  1.00  0.00     0.038 A 
ATOM      3  C   UNL     1     115.737 114.233  78.753  1.00  0.00     0.128 A 
ATOM      4  C   UNL     1     115.153 115.053  80.949  1.00  0.00     0.034 A 
ATOM      5  C   UNL     1     117.080 114.512  79.007  1.00  0.00     0.048 A 
ATOM      6  C   UNL     1     116.496 115.332  81.203  1.00  0.00     0.041 A 
ATOM      7  C   UNL     1     117.460 115.060  80.232  1.00  0.00     0.024 A 
ENDROOT
BRANCH   2   8
ATOM      8  C   UNL     1     113.366 114.221  79.481  1.00  0.00     0.146 C 
ATOM      9  N   UNL     1     112.557 115.117  79.015  1.00  0.00    -0.170 NA
BRANCH   9  10
ATOM     10  N   UNL     1     111.299 114.673  78.856  1.00  0.00    -0.166 N 
ATOM     11  C   UNL     1     110.470 115.157  77.869  1.00  0.00     0.254 C 
ATOM     12  C   UNL     1     110.789 113.672  79.651  1.00  0.00     0.254 C 
ATOM     13  O   UNL     1     110.714 116.008  77.026  1.00  0.00    -0.272 OA
ATOM     14  C   UNL     1     109.155 114.421  77.997  1.00  0.00     0.106 C 
ATOM     15  O   UNL     1     111.344 113.067  80.556  1.00  0.00    -0.272 OA
ATOM     16  C   UNL     1     109.369 113.426  79.191  1.00  0.00     0.106 C 
ATOM     17  C   UNL     1     108.749 113.640  76.713  1.00  0.00     0.063 C 
ATOM     18  C   UNL     1     109.108 111.964  78.725  1.00  0.00     0.063 C 
ATOM     19  C   UNL     1     107.483 112.878  77.107  1.00  0.00    -0.036 A 
ATOM     20  C   UNL     1     109.831 112.595  76.454  1.00  0.00    -0.036 A 
ATOM     21  C   UNL     1     107.676 111.976  78.190  1.00  0.00    -0.036 A 
ATOM     22  C   UNL     1     110.025 111.695  77.534  1.00  0.00    -0.036 A 
ATOM     23  C   UNL     1     106.240 113.004  76.504  1.00  0.00     0.004 A 
ATOM     24  C   UNL     1     110.589 112.484  75.297  1.00  0.00     0.004 A 
ATOM     25  C   UNL     1     106.626 111.204  78.664  1.00  0.00     0.004 A 
ATOM     26  C   UNL     1     110.974 110.687  77.453  1.00  0.00     0.004 A 
ATOM     27  C   UNL     1     105.185 112.226  76.987  1.00  0.00     0.000 A 
ATOM     28  C   UNL     1     111.545 111.470  75.220  1.00  0.00     0.000 A 
ATOM     29  C   UNL     1     105.376 111.336  78.055  1.00  0.00     0.000 A 
ATOM     30  C   UNL     1     111.736 110.580  76.288  1.00  0.00     0.000 A 
ENDBRANCH   9  10
ENDBRANCH   2   8
BRANCH   3  31
ATOM     31  O   UNL     1     115.386 113.697  77.550  1.00  0.00    -0.493 OA
BRANCH  31  32
ATOM     32  C   UNL     1     115.618 112.301  77.373  1.00  0.00     0.226 C 
ATOM     33  C   UNL     1     117.099 112.072  77.155  1.00  0.00     0.049 C 
ENDBRANCH  31  32
ENDBRANCH   3  31
TORSDOF 4
ENDMDL
MODEL 8
REMARK VINA RESULT:      -9.4      1.533      2.664
REMARK SMILES CCOc1ccc(Cl)cc1/C=N/N1C(=O)[C@@H]2[C@H]3c4ccccc4[C@H](c4ccccc43)[C@@H]2C1=O
REMARK SMILES IDX 8 1 10 2 4 3 9 4 5 5 7 6 6 7 11 8 12 9 13 10 32 11 14 12
REMARK SMILES IDX 33 13 31 14 15 15 16 16 24 17 17 18 23 19 25 20 18 21 30 22
REMARK SMILES IDX 22 23 26 24 19 25 29 26 21 27 27 28 20 29 28 30 3 31 2 32
REMARK SMILES IDX 1 33
REMARK H PARENT
ROOT
ATOM      1  Cl  UNL     1     104.041 111.410  79.638  1.00  0.00    -0.084 Cl
ATOM      2  C   UNL     1     107.524 111.229  77.705  1.00  0.00     0.038 A 
ATOM      3  C   UNL     1     107.204 110.550  76.539  1.00  0.00     0.128 A 
ATOM      4  C   UNL     1     106.561 111.500  78.666  1.00  0.00     0.034 A 
ATOM      5  C   UNL     1     105.890 110.131  76.330  1.00  0.00     0.048 A 
ATOM      6  C   UNL     1     105.248 111.081  78.457  1.00  0.00     0.041 A 
ATOM      7  C   UNL     1     104.911 110.397  77.288  1.00  0.00     0.024 A 
ENDROOT
BRANCH   2   8
ATOM      8  C   UNL     1     108.905 111.681  77.946  1.00  0.00     0.146 C 
ATOM      9  N   UNL     1     109.889 110.849  78.057  1.00  0.00    -0.170 NA
BRANCH   9  10
ATOM     10  N   UNL     1     111.074 111.444  78.275  1.00  0.00    -0.166 N 
ATOM     11  C   UNL     1     111.707 112.192  77.308  1.00  0.00     0.254 C 
ATOM     12  C   UNL     1     111.694 111.371  79.501  1.00  0.00     0.254 C 
ATOM     13  O   UNL     1     111.332 112.431  76.170  1.00  0.00    -0.272 OA
ATOM     14  C   UNL     1     112.994 112.702  77.918  1.00  0.00     0.106 C 
ATOM     15  O   UNL     1     111.309 110.804  80.513  1.00  0.00    -0.272 OA
ATOM     16  C   UNL     1     112.985 112.152  79.388  1.00  0.00     0.106 C 
ATOM     17  C   UNL     1     113.109 114.254  77.926  1.00  0.00     0.063 C 
ATOM     18  C   UNL     1     113.095 113.327  80.402  1.00  0.00     0.063 C 
ATOM     19  C   UNL     1     114.398 114.544  78.694  1.00  0.00    -0.036 A 
ATOM     20  C   UNL     1     111.959 114.792  78.775  1.00  0.00    -0.036 A 
ATOM     21  C   UNL     1     114.392 114.045  80.027  1.00  0.00    -0.036 A 
ATOM     22  C   UNL     1     111.951 114.294  80.104  1.00  0.00    -0.036 A 
ATOM     23  C   UNL     1     115.501 115.225  78.200  1.00  0.00     0.004 A 
ATOM     24  C   UNL     1     110.984 115.680  78.348  1.00  0.00     0.004 A 
ATOM     25  C   UNL     1     115.486 114.231  80.857  1.00  0.00     0.004 A 
ATOM     26  C   UNL     1     110.968 114.687  81.001  1.00  0.00     0.004 A 
ATOM     27  C   UNL     1     116.602 115.408  79.041  1.00  0.00     0.000 A 
ATOM     28  C   UNL     1     109.995 116.072  79.251  1.00  0.00     0.000 A 
ATOM     29  C   UNL     1     116.595 114.915  80.355  1.00  0.00     0.000 A 
ATOM     30  C   UNL     1     109.987 115.580  80.566  1.00  0.00     0.000 A 
ENDBRANCH   9  10
ENDBRANCH   2   8
BRANCH   3  31
ATOM     31  O   UNL     1     108.145 110.281  75.591  1.00  0.00    -0.493 OA
BRANCH  31  32
ATOM     32  C   UNL     1     107.920 110.813  74.287  1.00  0.00     0.226 C 
ATOM     33  C   UNL     1     108.190 112.302  74.309  1.00  0.00     0.049 C 
ENDBRANCH  31  32
ENDBRANCH   3  31
TORSDOF 4
ENDMDL
MODEL 9
REMARK VINA RESULT:      -9.4      1.878      2.701
REMARK SMILES CCOc1ccc(Cl)cc1/C=N/N1C(=O)[C@@H]2[C@H]3c4ccccc4[C@H](c4ccccc43)[C@@H]2C1=O
REMARK SMILES IDX 8 1 10 2 4 3 9 4 5 5 7 6 6 7 11 8 12 9 13 10 32 11 14 12
REMARK SMILES IDX 33 13 31 14 15 15 16 16 24 17 17 18 23 19 25 20 18 21 30 22
REMARK SMILES IDX 22 23 26 24 19 25 29 26 21 27 27 28 20 29 28 30 3 31 2 32
REMARK SMILES IDX 1 33
REMARK H PARENT
ROOT
ATOM      1  Cl  UNL     1     107.469 109.999  72.402  1.00  0.00    -0.084 Cl
ATOM      2  C   UNL     1     108.723 111.026  76.045  1.00  0.00     0.038 A 
ATOM      3  C   UNL     1     107.650 110.686  76.856  1.00  0.00     0.128 A 
ATOM      4  C   UNL     1     108.680 110.821  74.675  1.00  0.00     0.034 A 
ATOM      5  C   UNL     1     106.509 110.127  76.283  1.00  0.00     0.048 A 
ATOM      6  C   UNL     1     107.538 110.262  74.101  1.00  0.00     0.041 A 
ATOM      7  C   UNL     1     106.452 109.915  74.905  1.00  0.00     0.024 A 
ENDROOT
BRANCH   2   8
ATOM      8  C   UNL     1     109.939 111.617  76.631  1.00  0.00     0.146 C 
ATOM      9  N   UNL     1     109.984 112.850  77.017  1.00  0.00    -0.170 NA
BRANCH   9  10
ATOM     10  N   UNL     1     111.176 113.210  77.524  1.00  0.00    -0.166 N 
ATOM     11  C   UNL     1     111.320 114.303  78.348  1.00  0.00     0.254 C 
ATOM     12  C   UNL     1     112.309 112.471  77.277  1.00  0.00     0.254 C 
ATOM     13  O   UNL     1     110.459 115.077  78.738  1.00  0.00    -0.272 OA
ATOM     14  C   UNL     1     112.785 114.384  78.719  1.00  0.00     0.106 C 
ATOM     15  O   UNL     1     112.419 111.450  76.615  1.00  0.00    -0.272 OA
ATOM     16  C   UNL     1     113.447 113.156  78.002  1.00  0.00     0.106 C 
ATOM     17  C   UNL     1     113.045 114.314  80.253  1.00  0.00     0.063 C 
ATOM     18  C   UNL     1     114.162 112.246  79.043  1.00  0.00     0.063 C 
ATOM     19  C   UNL     1     114.567 114.277  80.387  1.00  0.00    -0.036 A 
ATOM     20  C   UNL     1     112.525 112.964  80.742  1.00  0.00    -0.036 A 
ATOM     21  C   UNL     1     115.169 113.164  79.736  1.00  0.00    -0.036 A 
ATOM     22  C   UNL     1     113.124 111.854  80.093  1.00  0.00    -0.036 A 
ATOM     23  C   UNL     1     115.344 115.203  81.067  1.00  0.00     0.004 A 
ATOM     24  C   UNL     1     111.561 112.774  81.721  1.00  0.00     0.004 A 
ATOM     25  C   UNL     1     116.543 112.983  79.769  1.00  0.00     0.004 A 
ATOM     26  C   UNL     1     112.758 110.557  80.425  1.00  0.00     0.004 A 
ATOM     27  C   UNL     1     116.728 115.017  81.096  1.00  0.00     0.000 A 
ATOM     28  C   UNL     1     111.193 111.469  82.052  1.00  0.00     0.000 A 
ATOM     29  C   UNL     1     117.321 113.919  80.453  1.00  0.00     0.000 A 
ATOM     30  C   UNL     1     111.785 110.371  81.410  1.00  0.00     0.000 A 
ENDBRANCH   9  10
ENDBRANCH   2   8
BRANCH   3  31
ATOM     31  O   UNL     1     107.687 110.885  78.204  1.00  0.00    -0.493 OA
BRANCH  31  32
ATOM     32  C   UNL     1     107.025 112.045  78.705  1.00  0.00     0.226 C 
ATOM     33  C   UNL     1     105.601 111.681  79.066  1.00  0.00     0.049 C 
ENDBRANCH  31  32
ENDBRANCH   3  31
TORSDOF 4
ENDMDL
MODEL 10
REMARK VINA RESULT:      -9.4      3.423      8.064
REMARK SMILES CCOc1ccc(Cl)cc1/C=N/N1C(=O)[C@@H]2[C@H]3c4ccccc4[C@H](c4ccccc43)[C@@H]2C1=O
REMARK SMILES IDX 8 1 10 2 4 3 9 4 5 5 7 6 6 7 11 8 12 9 13 10 32 11 14 12
REMARK SMILES IDX 33 13 31 14 15 15 16 16 24 17 17 18 23 19 25 20 18 21 30 22
REMARK SMILES IDX 22 23 26 24 19 25 29 26 21 27 27 28 20 29 28 30 3 31 2 32
REMARK SMILES IDX 1 33
REMARK H PARENT
ROOT
ATOM      1  Cl  UNL     1     117.849 113.003  81.297  1.00  0.00    -0.084 Cl
ATOM      2  C   UNL     1     114.850 114.393  79.068  1.00  0.00     0.038 A 
ATOM      3  C   UNL     1     115.458 115.369  78.293  1.00  0.00     0.128 A 
ATOM      4  C   UNL     1     115.573 113.658  79.995  1.00  0.00     0.034 A 
ATOM      5  C   UNL     1     116.821 115.617  78.450  1.00  0.00     0.048 A 
ATOM      6  C   UNL     1     116.936 113.906  80.152  1.00  0.00     0.041 A 
ATOM      7  C   UNL     1     117.561 114.885  79.379  1.00  0.00     0.024 A 
ENDROOT
BRANCH   2   8
ATOM      8  C   UNL     1     113.411 114.115  78.918  1.00  0.00     0.146 C 
ATOM      9  N   UNL     1     112.509 115.002  79.188  1.00  0.00    -0.170 NA
BRANCH   9  10
ATOM     10  N   UNL     1     111.253 114.567  78.991  1.00  0.00    -0.166 N 
ATOM     11  C   UNL     1     110.442 115.091  78.010  1.00  0.00     0.254 C 
ATOM     12  C   UNL     1     110.729 113.539  79.740  1.00  0.00     0.254 C 
ATOM     13  O   UNL     1     110.700 115.972  77.204  1.00  0.00    -0.272 OA
ATOM     14  C   UNL     1     109.123 114.353  78.090  1.00  0.00     0.106 C 
ATOM     15  O   UNL     1     111.267 112.898  80.631  1.00  0.00    -0.272 OA
ATOM     16  C   UNL     1     109.315 113.313  79.249  1.00  0.00     0.106 C 
ATOM     17  C   UNL     1     108.736 113.622  76.771  1.00  0.00     0.063 C 
ATOM     18  C   UNL     1     109.060 111.870  78.724  1.00  0.00     0.063 C 
ATOM     19  C   UNL     1     107.463 112.849  77.115  1.00  0.00    -0.036 A 
ATOM     20  C   UNL     1     109.821 112.585  76.490  1.00  0.00    -0.036 A 
ATOM     21  C   UNL     1     107.637 111.906  78.166  1.00  0.00    -0.036 A 
ATOM     22  C   UNL     1     109.995 111.645  77.538  1.00  0.00    -0.036 A 
ATOM     23  C   UNL     1     106.230 113.001  76.497  1.00  0.00     0.004 A 
ATOM     24  C   UNL     1     110.597 112.516  75.342  1.00  0.00     0.004 A 
ATOM     25  C   UNL     1     106.578 111.120  78.593  1.00  0.00     0.004 A 
ATOM     26  C   UNL     1     110.944 110.638  77.435  1.00  0.00     0.004 A 
ATOM     27  C   UNL     1     105.166 112.207  76.933  1.00  0.00     0.000 A 
ATOM     28  C   UNL     1     111.552 111.504  75.242  1.00  0.00     0.000 A 
ATOM     29  C   UNL     1     105.338 111.277  77.970  1.00  0.00     0.000 A 
ATOM     30  C   UNL     1     111.725 110.573  76.278  1.00  0.00     0.000 A 
ENDBRANCH   9  10
ENDBRANCH   2   8
BRANCH   3  31
ATOM     31  O   UNL     1     114.752 116.094  77.380  1.00  0.00    -0.493 OA
BRANCH  31  32
ATOM     32  C   UNL     1     114.737 117.510  77.550  1.00  0.00     0.226 C 
ATOM     33  C   UNL     1     113.302 117.991  77.550  1.00  0.00     0.049 C 
ENDBRANCH  31  32
ENDBRANCH   3  31
TORSDOF 4
ENDMDL
MODEL 11
REMARK VINA RESULT:      -9.1      3.011      7.866
REMARK SMILES CCOc1ccc(Cl)cc1/C=N/N1C(=O)[C@@H]2[C@H]3c4ccccc4[C@H](c4ccccc43)[C@@H]2C1=O
REMARK SMILES IDX 8 1 10 2 4 3 9 4 5 5 7 6 6 7 11 8 12 9 13 10 32 11 14 12
REMARK SMILES IDX 33 13 31 14 15 15 16 16 24 17 17 18 23 19 25 20 18 21 30 22
REMARK SMILES IDX 22 23 26 24 19 25 29 26 21 27 27 28 20 29 28 30 3 31 2 32
REMARK SMILES IDX 1 33
REMARK H PARENT
ROOT
ATOM      1  Cl  UNL     1     112.302 109.464  81.925  1.00  0.00    -0.084 Cl
ATOM      2  C   UNL     1     110.768 112.062  79.318  1.00  0.00     0.038 A 
ATOM      3  C   UNL     1     110.705 113.241  80.045  1.00  0.00     0.128 A 
ATOM      4  C   UNL     1     111.256 110.894  79.883  1.00  0.00     0.034 A 
ATOM      5  C   UNL     1     111.140 113.251  81.370  1.00  0.00     0.048 A 
ATOM      6  C   UNL     1     111.692 110.905  81.208  1.00  0.00     0.041 A 
ATOM      7  C   UNL     1     111.635 112.084  81.951  1.00  0.00     0.024 A 
ENDROOT
BRANCH   2   8
ATOM      8  C   UNL     1     110.313 112.029  77.917  1.00  0.00     0.146 C 
ATOM      9  N   UNL     1     111.075 112.399  76.939  1.00  0.00    -0.170 NA
BRANCH   9  10
ATOM     10  N   UNL     1     110.488 112.300  75.734  1.00  0.00    -0.166 N 
ATOM     11  C   UNL     1     110.468 111.120  75.025  1.00  0.00     0.254 C 
ATOM     12  C   UNL     1     109.837 113.370  75.167  1.00  0.00     0.254 C 
ATOM     13  O   UNL     1     110.939 110.038  75.341  1.00  0.00    -0.272 OA
ATOM     14  C   UNL     1     109.722 111.393  73.737  1.00  0.00     0.106 C 
ATOM     15  O   UNL     1     109.689 114.495  75.622  1.00  0.00    -0.272 OA
ATOM     16  C   UNL     1     109.298 112.901  73.833  1.00  0.00     0.106 C 
ATOM     17  C   UNL     1     108.467 110.494  73.541  1.00  0.00     0.063 C 
ATOM     18  C   UNL     1     107.753 113.035  73.701  1.00  0.00     0.063 C 
ATOM     19  C   UNL     1     107.805 111.024  72.269  1.00  0.00    -0.036 A 
ATOM     20  C   UNL     1     107.509 110.790  74.693  1.00  0.00    -0.036 A 
ATOM     21  C   UNL     1     107.421 112.392  72.355  1.00  0.00    -0.036 A 
ATOM     22  C   UNL     1     107.126 112.154  74.780  1.00  0.00    -0.036 A 
ATOM     23  C   UNL     1     107.569 110.295  71.113  1.00  0.00     0.004 A 
ATOM     24  C   UNL     1     107.026 109.861  75.602  1.00  0.00     0.004 A 
ATOM     25  C   UNL     1     106.803 113.021  71.285  1.00  0.00     0.004 A 
ATOM     26  C   UNL     1     106.260 112.584  75.775  1.00  0.00     0.004 A 
ATOM     27  C   UNL     1     106.947 110.935  70.038  1.00  0.00     0.000 A 
ATOM     28  C   UNL     1     106.156 110.297  76.604  1.00  0.00     0.000 A 
ATOM     29  C   UNL     1     106.569 112.284  70.123  1.00  0.00     0.000 A 
ATOM     30  C   UNL     1     105.777 111.646  76.690  1.00  0.00     0.000 A 
ENDBRANCH   9  10
ENDBRANCH   2   8
BRANCH   3  31
ATOM     31  O   UNL     1     110.226 114.392  79.494  1.00  0.00    -0.493 OA
BRANCH  31  32
ATOM     32  C   UNL     1     111.023 115.565  79.652  1.00  0.00     0.226 C 
ATOM     33  C   UNL     1     111.673 115.899  78.326  1.00  0.00     0.049 C 
ENDBRANCH  31  32
ENDBRANCH   3  31
TORSDOF 4
ENDMDL
MODEL 12
REMARK VINA RESULT:      -8.7      3.409      8.189
REMARK SMILES CCOc1ccc(Cl)cc1/C=N/N1C(=O)[C@@H]2[C@H]3c4ccccc4[C@H](c4ccccc43)[C@@H]2C1=O
REMARK SMILES IDX 8 1 10 2 4 3 9 4 5 5 7 6 6 7 11 8 12 9 13 10 32 11 14 12
REMARK SMILES IDX 33 13 31 14 15 15 16 16 24 17 17 18 23 19 25 20 18 21 30 22
REMARK SMILES IDX 22 23 26 24 19 25 29 26 21 27 27 28 20 29 28 30 3 31 2 32
REMARK SMILES IDX 1 33
REMARK H PARENT
ROOT
ATOM      1  Cl  UNL     1     117.934 116.556  82.785  1.00  0.00    -0.084 Cl
ATOM      2  C   UNL     1     116.310 113.958  80.232  1.00  0.00     0.038 A 
ATOM      3  C   UNL     1     117.403 113.234  79.781  1.00  0.00     0.128 A 
ATOM      4  C   UNL     1     116.459 114.982  81.155  1.00  0.00     0.034 A 
ATOM      5  C   UNL     1     118.674 113.541  80.263  1.00  0.00     0.048 A 
ATOM      6  C   UNL     1     117.731 115.289  81.638  1.00  0.00     0.041 A 
ATOM      7  C   UNL     1     118.839 114.568  81.193  1.00  0.00     0.024 A 
ENDROOT
BRANCH   2   8
ATOM      8  C   UNL     1     114.957 113.650  79.736  1.00  0.00     0.146 C 
ATOM      9  N   UNL     1     114.445 114.262  78.718  1.00  0.00    -0.170 NA
BRANCH   9  10
ATOM     10  N   UNL     1     113.203 113.848  78.412  1.00  0.00    -0.166 N 
ATOM     11  C   UNL     1     112.973 112.728  77.647  1.00  0.00     0.254 C 
ATOM     12  C   UNL     1     112.094 114.506  78.891  1.00  0.00     0.254 C 
ATOM     13  O   UNL     1     113.791 111.968  77.151  1.00  0.00    -0.272 OA
ATOM     14  C   UNL     1     111.472 112.578  77.526  1.00  0.00     0.106 C 
ATOM     15  O   UNL     1     112.049 115.489  79.615  1.00  0.00    -0.272 OA
ATOM     16  C   UNL     1     110.883 113.769  78.361  1.00  0.00     0.106 C 
ATOM     17  C   UNL     1     110.934 111.223  78.071  1.00  0.00     0.063 C 
ATOM     18  C   UNL     1     109.941 113.230  79.476  1.00  0.00     0.063 C 
ATOM     19  C   UNL     1     109.413 111.342  77.975  1.00  0.00    -0.036 A 
ATOM     20  C   UNL     1     111.280 111.160  79.557  1.00  0.00    -0.036 A 
ATOM     21  C   UNL     1     108.878 112.422  78.731  1.00  0.00    -0.036 A 
ATOM     22  C   UNL     1     110.747 112.237  80.312  1.00  0.00    -0.036 A 
ATOM     23  C   UNL     1     108.579 110.509  77.244  1.00  0.00     0.004 A 
ATOM     24  C   UNL     1     112.037 110.174  80.171  1.00  0.00     0.004 A 
ATOM     25  C   UNL     1     107.513 112.663  78.753  1.00  0.00     0.004 A 
ATOM     26  C   UNL     1     110.973 112.324  81.678  1.00  0.00     0.004 A 
ATOM     27  C   UNL     1     107.204 110.757  77.268  1.00  0.00     0.000 A 
ATOM     28  C   UNL     1     112.265 110.265  81.545  1.00  0.00     0.000 A 
ATOM     29  C   UNL     1     106.677 111.823  78.014  1.00  0.00     0.000 A 
ATOM     30  C   UNL     1     111.738 111.330  82.292  1.00  0.00     0.000 A 
ENDBRANCH   9  10
ENDBRANCH   2   8
BRANCH   3  31
ATOM     31  O   UNL     1     117.262 112.226  78.874  1.00  0.00    -0.493 OA
BRANCH  31  32
ATOM     32  C   UNL     1     117.711 112.484  77.545  1.00  0.00     0.226 C 
ATOM     33  C   UNL     1     118.132 111.178  76.906  1.00  0.00     0.049 C 
ENDBRANCH  31  32
ENDBRANCH   3  31
TORSDOF 4
ENDMDL
MODEL 13
REMARK VINA RESULT:      -8.7      3.412      8.111
REMARK SMILES CCOc1ccc(Cl)cc1/C=N/N1C(=O)[C@@H]2[C@H]3c4ccccc4[C@H](c4ccccc43)[C@@H]2C1=O
REMARK SMILES IDX 8 1 10 2 4 3 9 4 5 5 7 6 6 7 11 8 12 9 13 10 32 11 14 12
REMARK SMILES IDX 33 13 31 14 15 15 16 16 24 17 17 18 23 19 25 20 18 21 30 22
REMARK SMILES IDX 22 23 26 24 19 25 29 26 21 27 27 28 20 29 28 30 3 31 2 32
REMARK SMILES IDX 1 33
REMARK H PARENT
ROOT
ATOM      1  Cl  UNL     1     118.073 111.488  77.872  1.00  0.00    -0.084 Cl
ATOM      2  C   UNL     1     114.842 113.791  78.271  1.00  0.00     0.038 A 
ATOM      3  C   UNL     1     115.377 115.054  78.474  1.00  0.00     0.128 A 
ATOM      4  C   UNL     1     115.659 112.686  78.085  1.00  0.00     0.034 A 
ATOM      5  C   UNL     1     116.762 115.216  78.492  1.00  0.00     0.048 A 
ATOM      6  C   UNL     1     117.044 112.848  78.103  1.00  0.00     0.041 A 
ATOM      7  C   UNL     1     117.596 114.113  78.306  1.00  0.00     0.024 A 
ENDROOT
BRANCH   2   8
ATOM      8  C   UNL     1     113.381 113.597  78.249  1.00  0.00     0.146 C 
ATOM      9  N   UNL     1     112.578 114.358  78.919  1.00  0.00    -0.170 NA
BRANCH   9  10
ATOM     10  N   UNL     1     111.283 114.030  78.775  1.00  0.00    -0.166 N 
ATOM     11  C   UNL     1     110.460 114.672  77.879  1.00  0.00     0.254 C 
ATOM     12  C   UNL     1     110.725 112.997  79.493  1.00  0.00     0.254 C 
ATOM     13  O   UNL     1     110.738 115.581  77.112  1.00  0.00    -0.272 OA
ATOM     14  C   UNL     1     109.095 114.030  77.996  1.00  0.00     0.106 C 
ATOM     15  O   UNL     1     111.264 112.264  80.310  1.00  0.00    -0.272 OA
ATOM     16  C   UNL     1     109.273 112.907  79.078  1.00  0.00     0.106 C 
ATOM     17  C   UNL     1     108.578 113.414  76.663  1.00  0.00     0.063 C 
ATOM     18  C   UNL     1     108.878 111.523  78.486  1.00  0.00     0.063 C 
ATOM     19  C   UNL     1     107.271 112.715  77.039  1.00  0.00    -0.036 A 
ATOM     20  C   UNL     1     109.562 112.320  76.255  1.00  0.00    -0.036 A 
ATOM     21  C   UNL     1     107.432 111.697  78.020  1.00  0.00    -0.036 A 
ATOM     22  C   UNL     1     109.724 111.305  77.233  1.00  0.00    -0.036 A 
ATOM     23  C   UNL     1     106.020 112.996  76.510  1.00  0.00     0.004 A 
ATOM     24  C   UNL     1     110.263 112.268  75.059  1.00  0.00     0.004 A 
ATOM     25  C   UNL     1     106.342 110.965  78.465  1.00  0.00     0.004 A 
ATOM     26  C   UNL     1     110.585 110.240  77.012  1.00  0.00     0.004 A 
ATOM     27  C   UNL     1     104.925 112.256  76.963  1.00  0.00     0.000 A 
ATOM     28  C   UNL     1     111.131 111.196  74.841  1.00  0.00     0.000 A 
ATOM     29  C   UNL     1     105.085 111.252  77.931  1.00  0.00     0.000 A 
ATOM     30  C   UNL     1     111.291 110.191  75.808  1.00  0.00     0.000 A 
ENDBRANCH   9  10
ENDBRANCH   2   8
BRANCH   3  31
ATOM     31  O   UNL     1     114.578 116.144  78.657  1.00  0.00    -0.493 OA
BRANCH  31  32
ATOM     32  C   UNL     1     114.617 117.151  77.648  1.00  0.00     0.226 C 
ATOM     33  C   UNL     1     113.247 117.783  77.532  1.00  0.00     0.049 C 
ENDBRANCH  31  32
ENDBRANCH   3  31
TORSDOF 4
ENDMDL
MODEL 14
REMARK VINA RESULT:      -8.4      3.108      8.071
REMARK SMILES CCOc1ccc(Cl)cc1/C=N/N1C(=O)[C@@H]2[C@H]3c4ccccc4[C@H](c4ccccc43)[C@@H]2C1=O
REMARK SMILES IDX 8 1 10 2 4 3 9 4 5 5 7 6 6 7 11 8 12 9 13 10 32 11 14 12
REMARK SMILES IDX 33 13 31 14 15 15 16 16 24 17 17 18 23 19 25 20 18 21 30 22
REMARK SMILES IDX 22 23 26 24 19 25 29 26 21 27 27 28 20 29 28 30 3 31 2 32
REMARK SMILES IDX 1 33
REMARK H PARENT
ROOT
ATOM      1  Cl  UNL     1     116.081 117.406  77.891  1.00  0.00    -0.084 Cl
ATOM      2  C   UNL     1     114.329 113.916  78.694  1.00  0.00     0.038 A 
ATOM      3  C   UNL     1     115.377 113.133  79.153  1.00  0.00     0.128 A 
ATOM      4  C   UNL     1     114.531 115.230  78.303  1.00  0.00     0.034 A 
ATOM      5  C   UNL     1     116.659 113.678  79.222  1.00  0.00     0.048 A 
ATOM      6  C   UNL     1     115.813 115.776  78.372  1.00  0.00     0.041 A 
ATOM      7  C   UNL     1     116.877 115.000  78.832  1.00  0.00     0.024 A 
ENDROOT
BRANCH   2   8
ATOM      8  C   UNL     1     112.966 113.360  78.613  1.00  0.00     0.146 C 
ATOM      9  N   UNL     1     112.736 112.175  78.149  1.00  0.00    -0.170 NA
BRANCH   9  10
ATOM     10  N   UNL     1     111.434 111.840  78.153  1.00  0.00    -0.166 N 
ATOM     11  C   UNL     1     110.600 112.158  79.201  1.00  0.00     0.254 C 
ATOM     12  C   UNL     1     110.860 111.198  77.081  1.00  0.00     0.254 C 
ATOM     13  O   UNL     1     110.872 112.757  80.231  1.00  0.00    -0.272 OA
ATOM     14  C   UNL     1     109.227 111.632  78.845  1.00  0.00     0.106 C 
ATOM     15  O   UNL     1     111.385 110.854  76.033  1.00  0.00    -0.272 OA
ATOM     16  C   UNL     1     109.401 110.989  77.424  1.00  0.00     0.106 C 
ATOM     17  C   UNL     1     108.128 112.733  78.805  1.00  0.00     0.063 C 
ATOM     18  C   UNL     1     108.420 111.649  76.412  1.00  0.00     0.063 C 
ATOM     19  C   UNL     1     106.875 112.014  78.303  1.00  0.00    -0.036 A 
ATOM     20  C   UNL     1     108.525 113.735  77.723  1.00  0.00    -0.036 A 
ATOM     21  C   UNL     1     107.033 111.430  77.015  1.00  0.00    -0.036 A 
ATOM     22  C   UNL     1     108.683 113.154  76.439  1.00  0.00    -0.036 A 
ATOM     23  C   UNL     1     105.672 111.909  78.985  1.00  0.00     0.004 A 
ATOM     24  C   UNL     1     108.730 115.094  77.914  1.00  0.00     0.004 A 
ATOM     25  C   UNL     1     105.986 110.746  76.416  1.00  0.00     0.004 A 
ATOM     26  C   UNL     1     109.043 113.933  75.349  1.00  0.00     0.004 A 
ATOM     27  C   UNL     1     104.621 111.217  78.378  1.00  0.00     0.000 A 
ATOM     28  C   UNL     1     109.095 115.874  76.816  1.00  0.00     0.000 A 
ATOM     29  C   UNL     1     104.777 110.641  77.107  1.00  0.00     0.000 A 
ATOM     30  C   UNL     1     109.251 115.300  75.545  1.00  0.00     0.000 A 
ENDBRANCH   9  10
ENDBRANCH   2   8
BRANCH   3  31
ATOM     31  O   UNL     1     115.184 111.840  79.540  1.00  0.00    -0.493 OA
BRANCH  31  32
ATOM     32  C   UNL     1     114.752 111.624  80.881  1.00  0.00     0.226 C 
ATOM     33  C   UNL     1     113.698 110.537  80.889  1.00  0.00     0.049 C 
ENDBRANCH  31  32
ENDBRANCH   3  31
TORSDOF 4
ENDMDL
MODEL 15
REMARK VINA RESULT:      -8.2      3.202      7.829
REMARK SMILES CCOc1ccc(Cl)cc1/C=N/N1C(=O)[C@@H]2[C@H]3c4ccccc4[C@H](c4ccccc43)[C@@H]2C1=O
REMARK SMILES IDX 8 1 10 2 4 3 9 4 5 5 7 6 6 7 11 8 12 9 13 10 32 11 14 12
REMARK SMILES IDX 33 13 31 14 15 15 16 16 24 17 17 18 23 19 25 20 18 21 30 22
REMARK SMILES IDX 22 23 26 24 19 25 29 26 21 27 27 28 20 29 28 30 3 31 2 32
REMARK SMILES IDX 1 33
REMARK H PARENT
ROOT
ATOM      1  Cl  UNL     1     112.943 109.590  81.232  1.00  0.00    -0.084 Cl
ATOM      2  C   UNL     1     110.594 112.138  79.260  1.00  0.00     0.038 A 
ATOM      3  C   UNL     1     110.541 113.237  80.104  1.00  0.00     0.128 A 
ATOM      4  C   UNL     1     111.328 111.010  79.595  1.00  0.00     0.034 A 
ATOM      5  C   UNL     1     111.239 113.208  81.311  1.00  0.00     0.048 A 
ATOM      6  C   UNL     1     112.026 110.981  80.802  1.00  0.00     0.041 A 
ATOM      7  C   UNL     1     111.983 112.080  81.660  1.00  0.00     0.024 A 
ENDROOT
BRANCH   2   8
ATOM      8  C   UNL     1     109.864 112.148  77.980  1.00  0.00     0.146 C 
ATOM      9  N   UNL     1     108.603 111.872  77.908  1.00  0.00    -0.170 NA
BRANCH   9  10
ATOM     10  N   UNL     1     108.111 111.932  76.659  1.00  0.00    -0.166 N 
ATOM     11  C   UNL     1     108.050 113.111  75.951  1.00  0.00     0.254 C 
ATOM     12  C   UNL     1     107.682 110.799  76.006  1.00  0.00     0.254 C 
ATOM     13  O   UNL     1     108.407 114.225  76.304  1.00  0.00    -0.272 OA
ATOM     14  C   UNL     1     107.453 112.783  74.600  1.00  0.00     0.106 C 
ATOM     15  O   UNL     1     107.678 109.646  76.412  1.00  0.00    -0.272 OA
ATOM     16  C   UNL     1     107.208 111.233  74.637  1.00  0.00     0.106 C 
ATOM     17  C   UNL     1     108.378 113.152  73.404  1.00  0.00     0.063 C 
ATOM     18  C   UNL     1     107.963 110.541  73.465  1.00  0.00     0.063 C 
ATOM     19  C   UNL     1     107.648 112.620  72.170  1.00  0.00    -0.036 A 
ATOM     20  C   UNL     1     109.658 112.331  73.547  1.00  0.00    -0.036 A 
ATOM     21  C   UNL     1     107.424 111.215  72.203  1.00  0.00    -0.036 A 
ATOM     22  C   UNL     1     109.436 110.930  73.580  1.00  0.00    -0.036 A 
ATOM     23  C   UNL     1     107.222 113.378  71.089  1.00  0.00     0.004 A 
ATOM     24  C   UNL     1     110.942 112.845  73.642  1.00  0.00     0.004 A 
ATOM     25  C   UNL     1     106.777 110.577  71.155  1.00  0.00     0.004 A 
ATOM     26  C   UNL     1     110.499 110.047  73.707  1.00  0.00     0.004 A 
ATOM     27  C   UNL     1     106.570 112.731  70.038  1.00  0.00     0.000 A 
ATOM     28  C   UNL     1     112.010 111.955  73.772  1.00  0.00     0.000 A 
ATOM     29  C   UNL     1     106.349 111.345  70.071  1.00  0.00     0.000 A 
ATOM     30  C   UNL     1     111.790 110.569  73.805  1.00  0.00     0.000 A 
ENDBRANCH   9  10
ENDBRANCH   2   8
BRANCH   3  31
ATOM     31  O   UNL     1     109.822 114.349  79.780  1.00  0.00    -0.493 OA
BRANCH  31  32
ATOM     32  C   UNL     1     110.514 115.595  79.800  1.00  0.00     0.226 C 
ATOM     33  C   UNL     1     111.318 115.732  78.524  1.00  0.00     0.049 C 
ENDBRANCH  31  32
ENDBRANCH   3  31
TORSDOF 4
ENDMDL
