MODEL 1
REMARK VINA RESULT:      -8.5      0.000      0.000
REMARK SMILES COc1cccc([C@@H]2C=Cc3cccn3[C@]23C(=O)N(C)c2ccccc23)c1
REMARK SMILES IDX 7 1 27 2 6 3 3 4 5 5 4 6 8 7 18 8 17 9 19 10 16 11 21 12
REMARK SMILES IDX 15 13 26 14 22 15 11 16 14 17 9 18 25 19 23 20 10 21 12 22
REMARK SMILES IDX 13 23 24 24 20 25 2 26 1 27
REMARK H PARENT
ROOT
ATOM      1  C   UNL     1     116.989  95.397 122.294  1.00  0.00    -0.034 A 
ATOM      2  C   UNL     1     115.607  95.257 122.419  1.00  0.00     0.050 A 
ATOM      3  C   UNL     1     117.685  94.632 121.357  1.00  0.00     0.005 A 
ATOM      4  C   UNL     1     114.920  94.354 121.608  1.00  0.00     0.119 A 
ATOM      5  C   UNL     1     116.999  93.728 120.546  1.00  0.00     0.004 A 
ATOM      6  C   UNL     1     115.617  93.590 120.671  1.00  0.00     0.046 A 
ENDROOT
BRANCH   1   7
ATOM      7  C   UNL     1     117.741  96.386 123.184  1.00  0.00     0.083 C 
ATOM      8  O   UNL     1     116.295  98.747 121.619  1.00  0.00    -0.271 OA
ATOM      9  C   UNL     1     117.366  98.214 121.362  1.00  0.00     0.258 C 
ATOM     10  N   UNL     1     117.954  98.042 120.101  1.00  0.00    -0.313 N 
ATOM     11  C   UNL     1     118.348  97.613 122.414  1.00  0.00     0.161 C 
ATOM     12  C   UNL     1     119.216  97.444 120.199  1.00  0.00     0.050 A 
ATOM     13  N   UNL     1     118.726  98.693 123.343  1.00  0.00    -0.328 N 
ATOM     14  C   UNL     1     119.511  97.185 121.538  1.00  0.00     0.012 A 
ATOM     15  C   UNL     1     120.104  97.131 119.183  1.00  0.00     0.027 A 
ATOM     16  C   UNL     1     118.115  98.894 124.566  1.00  0.00     0.042 A 
ATOM     17  C   UNL     1     119.596  99.728 123.096  1.00  0.00     0.088 A 
ATOM     18  C   UNL     1     116.948  96.810 124.404  1.00  0.00    -0.013 C 
ATOM     19  C   UNL     1     120.717  96.603 121.896  1.00  0.00     0.009 A 
ATOM     20  C   UNL     1     121.319  96.542 119.539  1.00  0.00     0.002 A 
ATOM     21  C   UNL     1     117.138  97.982 125.025  1.00  0.00     0.023 C 
ATOM     22  C   UNL     1     118.641 100.051 125.107  1.00  0.00     0.028 A 
ATOM     23  C   UNL     1     119.578 100.571 124.185  1.00  0.00     0.020 A 
ATOM     24  C   UNL     1     121.625  96.282 120.884  1.00  0.00     0.001 A 
ATOM     25  C   UNL     1     117.365  98.448 118.847  1.00  0.00     0.153 C 
ENDBRANCH   1   7
BRANCH   4  26
ATOM     26  O   UNL     1     113.572  94.218 121.731  1.00  0.00    -0.497 OA
ATOM     27  C   UNL     1     112.834  95.380 122.107  1.00  0.00     0.278 C 
ENDBRANCH   4  26
TORSDOF 2
ENDMDL
MODEL 2
REMARK VINA RESULT:      -7.8     12.951     15.562
REMARK SMILES COc1cccc([C@@H]2C=Cc3cccn3[C@]23C(=O)N(C)c2ccccc23)c1
REMARK SMILES IDX 7 1 27 2 6 3 3 4 5 5 4 6 8 7 18 8 17 9 19 10 16 11 21 12
REMARK SMILES IDX 15 13 26 14 22 15 11 16 14 17 9 18 25 19 23 20 10 21 12 22
REMARK SMILES IDX 13 23 24 24 20 25 2 26 1 27
REMARK H PARENT
ROOT
ATOM      1  C   UNL     1     106.491  94.687 114.568  1.00  0.00    -0.034 A 
ATOM      2  C   UNL     1     106.115  95.677 113.661  1.00  0.00     0.050 A 
ATOM      3  C   UNL     1     107.241  93.593 114.134  1.00  0.00     0.005 A 
ATOM      4  C   UNL     1     106.489  95.576 112.321  1.00  0.00     0.119 A 
ATOM      5  C   UNL     1     107.614  93.490 112.793  1.00  0.00     0.004 A 
ATOM      6  C   UNL     1     107.239  94.482 111.888  1.00  0.00     0.046 A 
ENDROOT
BRANCH   1   7
ATOM      7  C   UNL     1     106.080  94.798 116.035  1.00  0.00     0.083 C 
ATOM      8  O   UNL     1     104.616  91.991 115.741  1.00  0.00    -0.271 OA
ATOM      9  C   UNL     1     104.152  93.108 115.560  1.00  0.00     0.258 C 
ATOM     10  N   UNL     1     103.135  93.476 114.668  1.00  0.00    -0.313 N 
ATOM     11  C   UNL     1     104.588  94.398 116.319  1.00  0.00     0.161 C 
ATOM     12  C   UNL     1     102.820  94.836 114.779  1.00  0.00     0.050 A 
ATOM     13  N   UNL     1     104.360  94.171 117.757  1.00  0.00    -0.328 N 
ATOM     14  C   UNL     1     103.630  95.428 115.749  1.00  0.00     0.012 A 
ATOM     15  C   UNL     1     101.866  95.560 114.084  1.00  0.00     0.027 A 
ATOM     16  C   UNL     1     105.350  93.761 118.630  1.00  0.00     0.042 A 
ATOM     17  C   UNL     1     103.152  94.173 118.413  1.00  0.00     0.088 A 
ATOM     18  C   UNL     1     107.047  94.111 116.978  1.00  0.00    -0.013 C 
ATOM     19  C   UNL     1     103.500  96.775 116.053  1.00  0.00     0.009 A 
ATOM     20  C   UNL     1     101.732  96.917 114.385  1.00  0.00     0.002 A 
ATOM     21  C   UNL     1     106.683  93.634 118.175  1.00  0.00     0.023 C 
ATOM     22  C   UNL     1     104.757  93.542 119.858  1.00  0.00     0.028 A 
ATOM     23  C   UNL     1     103.375  93.808 119.722  1.00  0.00     0.020 A 
ATOM     24  C   UNL     1     102.541  97.520 115.362  1.00  0.00     0.001 A 
ATOM     25  C   UNL     1     102.461  92.579 113.760  1.00  0.00     0.153 C 
ENDBRANCH   1   7
BRANCH   4  26
ATOM     26  O   UNL     1     106.121  96.542 111.437  1.00  0.00    -0.497 OA
ATOM     27  C   UNL     1     105.415  97.667 111.960  1.00  0.00     0.278 C 
ENDBRANCH   4  26
TORSDOF 2
ENDMDL
MODEL 3
REMARK VINA RESULT:      -7.4     16.448     19.163
REMARK SMILES COc1cccc([C@@H]2C=Cc3cccn3[C@]23C(=O)N(C)c2ccccc23)c1
REMARK SMILES IDX 7 1 27 2 6 3 3 4 5 5 4 6 8 7 18 8 17 9 19 10 16 11 21 12
REMARK SMILES IDX 15 13 26 14 22 15 11 16 14 17 9 18 25 19 23 20 10 21 12 22
REMARK SMILES IDX 13 23 24 24 20 25 2 26 1 27
REMARK H PARENT
ROOT
ATOM      1  C   UNL     1     121.587  85.364 107.334  1.00  0.00    -0.034 A 
ATOM      2  C   UNL     1     121.488  84.254 106.495  1.00  0.00     0.050 A 
ATOM      3  C   UNL     1     122.400  86.440 106.973  1.00  0.00     0.005 A 
ATOM      4  C   UNL     1     122.201  84.218 105.297  1.00  0.00     0.119 A 
ATOM      5  C   UNL     1     123.113  86.404 105.775  1.00  0.00     0.004 A 
ATOM      6  C   UNL     1     123.013  85.294 104.937  1.00  0.00     0.046 A 
ENDROOT
BRANCH   1   7
ATOM      7  C   UNL     1     120.806  85.402 108.646  1.00  0.00     0.083 C 
ATOM      8  O   UNL     1     123.570  85.790 110.169  1.00  0.00    -0.271 OA
ATOM      9  C   UNL     1     122.998  84.744 109.896  1.00  0.00     0.258 C 
ATOM     10  N   UNL     1     123.579  83.496 109.630  1.00  0.00    -0.313 N 
ATOM     11  C   UNL     1     121.452  84.561 109.805  1.00  0.00     0.161 C 
ATOM     12  C   UNL     1     122.608  82.510 109.419  1.00  0.00     0.050 A 
ATOM     13  N   UNL     1     120.879  84.924 111.113  1.00  0.00    -0.328 N 
ATOM     14  C   UNL     1     121.336  83.073 109.528  1.00  0.00     0.012 A 
ATOM     15  C   UNL     1     122.788  81.164 109.150  1.00  0.00     0.027 A 
ATOM     16  C   UNL     1     120.349  86.170 111.393  1.00  0.00     0.042 A 
ATOM     17  C   UNL     1     120.916  84.179 112.267  1.00  0.00     0.088 A 
ATOM     18  C   UNL     1     120.451  86.808 109.088  1.00  0.00    -0.013 C 
ATOM     19  C   UNL     1     120.201  82.292 109.371  1.00  0.00     0.009 A 
ATOM     20  C   UNL     1     121.649  80.373 108.988  1.00  0.00     0.002 A 
ATOM     21  C   UNL     1     120.249  87.140 110.370  1.00  0.00     0.023 C 
ATOM     22  C   UNL     1     120.015  86.187 112.732  1.00  0.00     0.028 A 
ATOM     23  C   UNL     1     120.365  84.931 113.280  1.00  0.00     0.020 A 
ATOM     24  C   UNL     1     120.366  80.932 109.100  1.00  0.00     0.001 A 
ATOM     25  C   UNL     1     124.998  83.229 109.601  1.00  0.00     0.153 C 
ENDBRANCH   1   7
BRANCH   4  26
ATOM     26  O   UNL     1     122.104  83.134 104.480  1.00  0.00    -0.497 OA
ATOM     27  C   UNL     1     121.527  81.953 105.034  1.00  0.00     0.278 C 
ENDBRANCH   4  26
TORSDOF 2
ENDMDL
MODEL 4
REMARK VINA RESULT:      -7.4      2.224      5.521
REMARK SMILES COc1cccc([C@@H]2C=Cc3cccn3[C@]23C(=O)N(C)c2ccccc23)c1
REMARK SMILES IDX 7 1 27 2 6 3 3 4 5 5 4 6 8 7 18 8 17 9 19 10 16 11 21 12
REMARK SMILES IDX 15 13 26 14 22 15 11 16 14 17 9 18 25 19 23 20 10 21 12 22
REMARK SMILES IDX 13 23 24 24 20 25 2 26 1 27
REMARK H PARENT
ROOT
ATOM      1  C   UNL     1     119.090  96.332 120.829  1.00  0.00    -0.034 A 
ATOM      2  C   UNL     1     120.381  96.780 120.549  1.00  0.00     0.050 A 
ATOM      3  C   UNL     1     118.902  95.113 121.482  1.00  0.00     0.005 A 
ATOM      4  C   UNL     1     121.484  96.012 120.921  1.00  0.00     0.119 A 
ATOM      5  C   UNL     1     120.005  94.343 121.853  1.00  0.00     0.004 A 
ATOM      6  C   UNL     1     121.295  94.793 121.573  1.00  0.00     0.046 A 
ENDROOT
BRANCH   1   7
ATOM      7  C   UNL     1     117.883  97.175 120.421  1.00  0.00     0.083 C 
ATOM      8  O   UNL     1     119.096  99.568 122.128  1.00  0.00    -0.271 OA
ATOM      9  C   UNL     1     118.322  98.695 122.494  1.00  0.00     0.258 C 
ATOM     10  N   UNL     1     118.204  98.140 123.776  1.00  0.00    -0.313 N 
ATOM     11  C   UNL     1     117.251  98.006 121.594  1.00  0.00     0.161 C 
ATOM     12  C   UNL     1     117.163  97.206 123.840  1.00  0.00     0.050 A 
ATOM     13  N   UNL     1     116.352  99.056 121.082  1.00  0.00    -0.328 N 
ATOM     14  C   UNL     1     116.552  97.098 122.590  1.00  0.00     0.012 A 
ATOM     15  C   UNL     1     116.731  96.467 124.929  1.00  0.00     0.027 A 
ATOM     16  C   UNL     1     116.495  99.639 119.837  1.00  0.00     0.042 A 
ATOM     17  C   UNL     1     115.368  99.714 121.780  1.00  0.00     0.088 A 
ATOM     18  C   UNL     1     118.138  98.022 119.191  1.00  0.00    -0.013 C 
ATOM     19  C   UNL     1     115.479  96.240 122.399  1.00  0.00     0.009 A 
ATOM     20  C   UNL     1     115.653  95.600 124.741  1.00  0.00     0.002 A 
ATOM     21  C   UNL     1     117.483  99.165 118.945  1.00  0.00     0.023 C 
ATOM     22  C   UNL     1     115.558 100.650 119.743  1.00  0.00     0.028 A 
ATOM     23  C   UNL     1     114.845 100.691 120.963  1.00  0.00     0.020 A 
ATOM     24  C   UNL     1     115.031  95.488 123.488  1.00  0.00     0.001 A 
ATOM     25  C   UNL     1     119.023  98.491 124.912  1.00  0.00     0.153 C 
ENDBRANCH   1   7
BRANCH   4  26
ATOM     26  O   UNL     1     122.742  96.449 120.646  1.00  0.00    -0.497 OA
ATOM     27  C   UNL     1     123.706  95.465 120.276  1.00  0.00     0.278 C 
ENDBRANCH   4  26
TORSDOF 2
ENDMDL
MODEL 5
REMARK VINA RESULT:      -7.3     16.584     19.335
REMARK SMILES COc1cccc([C@@H]2C=Cc3cccn3[C@]23C(=O)N(C)c2ccccc23)c1
REMARK SMILES IDX 7 1 27 2 6 3 3 4 5 5 4 6 8 7 18 8 17 9 19 10 16 11 21 12
REMARK SMILES IDX 15 13 26 14 22 15 11 16 14 17 9 18 25 19 23 20 10 21 12 22
REMARK SMILES IDX 13 23 24 24 20 25 2 26 1 27
REMARK H PARENT
ROOT
ATOM      1  C   UNL     1     121.418  84.667 107.139  1.00  0.00    -0.034 A 
ATOM      2  C   UNL     1     122.210  85.667 106.576  1.00  0.00     0.050 A 
ATOM      3  C   UNL     1     121.301  83.430 106.502  1.00  0.00     0.005 A 
ATOM      4  C   UNL     1     122.886  85.433 105.379  1.00  0.00     0.119 A 
ATOM      5  C   UNL     1     121.976  83.195 105.304  1.00  0.00     0.004 A 
ATOM      6  C   UNL     1     122.769  84.196 104.743  1.00  0.00     0.046 A 
ENDROOT
BRANCH   1   7
ATOM      7  C   UNL     1     120.678  84.925 108.450  1.00  0.00     0.083 C 
ATOM      8  O   UNL     1     123.476  85.641 109.779  1.00  0.00    -0.271 OA
ATOM      9  C   UNL     1     122.924  84.551 109.720  1.00  0.00     0.258 C 
ATOM     10  N   UNL     1     123.531  83.288 109.663  1.00  0.00    -0.313 N 
ATOM     11  C   UNL     1     121.382  84.322 109.717  1.00  0.00     0.161 C 
ATOM     12  C   UNL     1     122.580  82.260 109.667  1.00  0.00     0.050 A 
ATOM     13  N   UNL     1     120.840  84.903 110.958  1.00  0.00    -0.328 N 
ATOM     14  C   UNL     1     121.297  82.806 109.718  1.00  0.00     0.012 A 
ATOM     15  C   UNL     1     122.789  80.891 109.638  1.00  0.00     0.027 A 
ATOM     16  C   UNL     1     120.285  86.167 111.028  1.00  0.00     0.042 A 
ATOM     17  C   UNL     1     120.933  84.380 112.226  1.00  0.00     0.088 A 
ATOM     18  C   UNL     1     120.299  86.380 108.643  1.00  0.00    -0.013 C 
ATOM     19  C   UNL     1     120.180  81.985 109.744  1.00  0.00     0.009 A 
ATOM     20  C   UNL     1     121.667  80.060 109.662  1.00  0.00     0.002 A 
ATOM     21  C   UNL     1     120.127  86.934 109.850  1.00  0.00     0.023 C 
ATOM     22  C   UNL     1     119.992  86.420 112.353  1.00  0.00     0.028 A 
ATOM     23  C   UNL     1     120.394  85.291 113.105  1.00  0.00     0.020 A 
ATOM     24  C   UNL     1     120.373  80.602 109.716  1.00  0.00     0.001 A 
ATOM     25  C   UNL     1     124.955  83.050 109.631  1.00  0.00     0.153 C 
ENDBRANCH   1   7
BRANCH   4  26
ATOM     26  O   UNL     1     123.657  86.410 104.831  1.00  0.00    -0.497 OA
ATOM     27  C   UNL     1     123.825  86.388 103.414  1.00  0.00     0.278 C 
ENDBRANCH   4  26
TORSDOF 2
ENDMDL
MODEL 6
REMARK VINA RESULT:      -7.2     13.541     16.037
REMARK SMILES COc1cccc([C@@H]2C=Cc3cccn3[C@]23C(=O)N(C)c2ccccc23)c1
REMARK SMILES IDX 7 1 27 2 6 3 3 4 5 5 4 6 8 7 18 8 17 9 19 10 16 11 21 12
REMARK SMILES IDX 15 13 26 14 22 15 11 16 14 17 9 18 25 19 23 20 10 21 12 22
REMARK SMILES IDX 13 23 24 24 20 25 2 26 1 27
REMARK H PARENT
ROOT
ATOM      1  C   UNL     1     106.282  94.663 114.649  1.00  0.00    -0.034 A 
ATOM      2  C   UNL     1     106.111  95.173 113.361  1.00  0.00     0.050 A 
ATOM      3  C   UNL     1     107.217  93.653 114.880  1.00  0.00     0.005 A 
ATOM      4  C   UNL     1     106.874  94.674 112.306  1.00  0.00     0.119 A 
ATOM      5  C   UNL     1     107.980  93.154 113.825  1.00  0.00     0.004 A 
ATOM      6  C   UNL     1     107.808  93.664 112.538  1.00  0.00     0.046 A 
ENDROOT
BRANCH   1   7
ATOM      7  C   UNL     1     105.445  95.210 115.804  1.00  0.00     0.083 C 
ATOM      8  O   UNL     1     104.179  92.312 116.134  1.00  0.00    -0.271 OA
ATOM      9  C   UNL     1     103.776  93.239 115.446  1.00  0.00     0.258 C 
ATOM     10  N   UNL     1     103.071  93.162 114.236  1.00  0.00    -0.313 N 
ATOM     11  C   UNL     1     103.943  94.752 115.785  1.00  0.00     0.161 C 
ATOM     12  C   UNL     1     102.718  94.432 113.764  1.00  0.00     0.050 A 
ATOM     13  N   UNL     1     103.294  94.994 117.086  1.00  0.00    -0.328 N 
ATOM     14  C   UNL     1     103.188  95.408 114.644  1.00  0.00     0.012 A 
ATOM     15  C   UNL     1     102.008  94.761 112.621  1.00  0.00     0.027 A 
ATOM     16  C   UNL     1     103.979  95.023 118.285  1.00  0.00     0.042 A 
ATOM     17  C   UNL     1     101.944  95.070 117.335  1.00  0.00     0.088 A 
ATOM     18  C   UNL     1     106.092  95.001 117.158  1.00  0.00    -0.013 C 
ATOM     19  C   UNL     1     102.952  96.752 114.399  1.00  0.00     0.009 A 
ATOM     20  C   UNL     1     101.770  96.114 112.369  1.00  0.00     0.002 A 
ATOM     21  C   UNL     1     105.389  94.913 118.295  1.00  0.00     0.023 C 
ATOM     22  C   UNL     1     103.046  95.159 119.294  1.00  0.00     0.028 A 
ATOM     23  C   UNL     1     101.766  95.195 118.694  1.00  0.00     0.020 A 
ATOM     24  C   UNL     1     102.237  97.102 113.251  1.00  0.00     0.001 A 
ATOM     25  C   UNL     1     102.716  91.938 113.558  1.00  0.00     0.153 C 
ENDBRANCH   1   7
BRANCH   4  26
ATOM     26  O   UNL     1     106.705  95.170 111.051  1.00  0.00    -0.497 OA
ATOM     27  C   UNL     1     106.005  96.408 110.930  1.00  0.00     0.278 C 
ENDBRANCH   4  26
TORSDOF 2
ENDMDL
MODEL 7
REMARK VINA RESULT:      -7.1      1.652      2.150
REMARK SMILES COc1cccc([C@@H]2C=Cc3cccn3[C@]23C(=O)N(C)c2ccccc23)c1
REMARK SMILES IDX 7 1 27 2 6 3 3 4 5 5 4 6 8 7 18 8 17 9 19 10 16 11 21 12
REMARK SMILES IDX 15 13 26 14 22 15 11 16 14 17 9 18 25 19 23 20 10 21 12 22
REMARK SMILES IDX 13 23 24 24 20 25 2 26 1 27
REMARK H PARENT
ROOT
ATOM      1  C   UNL     1     117.398  95.860 122.324  1.00  0.00    -0.034 A 
ATOM      2  C   UNL     1     116.333  95.418 123.109  1.00  0.00     0.050 A 
ATOM      3  C   UNL     1     117.605  95.312 121.057  1.00  0.00     0.005 A 
ATOM      4  C   UNL     1     115.475  94.429 122.628  1.00  0.00     0.119 A 
ATOM      5  C   UNL     1     116.747  94.323 120.577  1.00  0.00     0.004 A 
ATOM      6  C   UNL     1     115.683  93.882 121.362  1.00  0.00     0.046 A 
ENDROOT
BRANCH   1   7
ATOM      7  C   UNL     1     118.338  96.943 122.852  1.00  0.00     0.083 C 
ATOM      8  O   UNL     1     115.774  98.655 123.633  1.00  0.00    -0.271 OA
ATOM      9  C   UNL     1     116.400  98.668 122.583  1.00  0.00     0.258 C 
ATOM     10  N   UNL     1     115.908  98.937 121.298  1.00  0.00    -0.313 N 
ATOM     11  C   UNL     1     117.931  98.405 122.444  1.00  0.00     0.161 C 
ATOM     12  C   UNL     1     116.931  98.925 120.341  1.00  0.00     0.050 A 
ATOM     13  N   UNL     1     118.635  99.405 123.266  1.00  0.00    -0.328 N 
ATOM     14  C   UNL     1     118.148  98.636 120.959  1.00  0.00     0.012 A 
ATOM     15  C   UNL     1     116.842  99.161 118.980  1.00  0.00     0.027 A 
ATOM     16  C   UNL     1     119.079  99.158 124.551  1.00  0.00     0.042 A 
ATOM     17  C   UNL     1     118.820 100.734 122.971  1.00  0.00     0.088 A 
ATOM     18  C   UNL     1     118.615  96.819 124.336  1.00  0.00    -0.013 C 
ATOM     19  C   UNL     1     119.320  98.579 120.220  1.00  0.00     0.009 A 
ATOM     20  C   UNL     1     118.019  99.102 118.230  1.00  0.00     0.002 A 
ATOM     21  C   UNL     1     118.953  97.863 125.104  1.00  0.00     0.023 C 
ATOM     22  C   UNL     1     119.584 100.342 125.050  1.00  0.00     0.028 A 
ATOM     23  C   UNL     1     119.427 101.332 124.052  1.00  0.00     0.020 A 
ATOM     24  C   UNL     1     119.248  98.816 118.845  1.00  0.00     0.001 A 
ATOM     25  C   UNL     1     114.529  99.221 120.978  1.00  0.00     0.153 C 
ENDBRANCH   1   7
BRANCH   4  26
ATOM     26  O   UNL     1     114.437  93.998 123.395  1.00  0.00    -0.497 OA
ATOM     27  C   UNL     1     114.037  94.836 124.479  1.00  0.00     0.278 C 
ENDBRANCH   4  26
TORSDOF 2
ENDMDL
MODEL 8
REMARK VINA RESULT:      -7.1      2.685      6.202
REMARK SMILES COc1cccc([C@@H]2C=Cc3cccn3[C@]23C(=O)N(C)c2ccccc23)c1
REMARK SMILES IDX 7 1 27 2 6 3 3 4 5 5 4 6 8 7 18 8 17 9 19 10 16 11 21 12
REMARK SMILES IDX 15 13 26 14 22 15 11 16 14 17 9 18 25 19 23 20 10 21 12 22
REMARK SMILES IDX 13 23 24 24 20 25 2 26 1 27
REMARK H PARENT
ROOT
ATOM      1  C   UNL     1     118.795 100.929 120.147  1.00  0.00    -0.034 A 
ATOM      2  C   UNL     1     118.292 100.955 118.846  1.00  0.00     0.050 A 
ATOM      3  C   UNL     1     118.491 101.964 121.032  1.00  0.00     0.005 A 
ATOM      4  C   UNL     1     117.486 102.015 118.429  1.00  0.00     0.119 A 
ATOM      5  C   UNL     1     117.685 103.024 120.616  1.00  0.00     0.004 A 
ATOM      6  C   UNL     1     117.183 103.049 119.315  1.00  0.00     0.046 A 
ENDROOT
BRANCH   1   7
ATOM      7  C   UNL     1     119.678  99.769 120.601  1.00  0.00     0.083 C 
ATOM      8  O   UNL     1     117.366  97.780 119.700  1.00  0.00    -0.271 OA
ATOM      9  C   UNL     1     117.535  98.295 120.796  1.00  0.00     0.258 C 
ATOM     10  N   UNL     1     116.554  98.649 121.734  1.00  0.00    -0.313 N 
ATOM     11  C   UNL     1     118.918  98.661 121.416  1.00  0.00     0.161 C 
ATOM     12  C   UNL     1     117.124  99.160 122.907  1.00  0.00     0.050 A 
ATOM     13  N   UNL     1     119.712  97.422 121.503  1.00  0.00    -0.328 N 
ATOM     14  C   UNL     1     118.514  99.173 122.786  1.00  0.00     0.012 A 
ATOM     15  C   UNL     1     116.487  99.596 124.056  1.00  0.00     0.027 A 
ATOM     16  C   UNL     1     120.645  97.047 120.555  1.00  0.00     0.042 A 
ATOM     17  C   UNL     1     119.555  96.403 122.411  1.00  0.00     0.088 A 
ATOM     18  C   UNL     1     120.515  99.184 119.482  1.00  0.00    -0.013 C 
ATOM     19  C   UNL     1     119.310  99.627 123.828  1.00  0.00     0.009 A 
ATOM     20  C   UNL     1     117.284 100.056 125.107  1.00  0.00     0.002 A 
ATOM     21  C   UNL     1     120.948  97.916 119.482  1.00  0.00     0.023 C 
ATOM     22  C   UNL     1     121.105  95.792 120.899  1.00  0.00     0.028 A 
ATOM     23  C   UNL     1     120.424  95.390 122.072  1.00  0.00     0.020 A 
ATOM     24  C   UNL     1     118.683 100.070 124.995  1.00  0.00     0.001 A 
ATOM     25  C   UNL     1     115.131  98.490 121.549  1.00  0.00     0.153 C 
ENDBRANCH   1   7
BRANCH   4  26
ATOM     26  O   UNL     1     116.998 102.040 117.160  1.00  0.00    -0.497 OA
ATOM     27  C   UNL     1     117.015 103.295 116.481  1.00  0.00     0.278 C 
ENDBRANCH   4  26
TORSDOF 2
ENDMDL
MODEL 9
REMARK VINA RESULT:      -7.1      2.365      5.200
REMARK SMILES COc1cccc([C@@H]2C=Cc3cccn3[C@]23C(=O)N(C)c2ccccc23)c1
REMARK SMILES IDX 7 1 27 2 6 3 3 4 5 5 4 6 8 7 18 8 17 9 19 10 16 11 21 12
REMARK SMILES IDX 15 13 26 14 22 15 11 16 14 17 9 18 25 19 23 20 10 21 12 22
REMARK SMILES IDX 13 23 24 24 20 25 2 26 1 27
REMARK H PARENT
ROOT
ATOM      1  C   UNL     1     117.377  99.226 120.981  1.00  0.00    -0.034 A 
ATOM      2  C   UNL     1     118.505  98.744 120.318  1.00  0.00     0.050 A 
ATOM      3  C   UNL     1     117.161 100.601 121.079  1.00  0.00     0.005 A 
ATOM      4  C   UNL     1     119.417  99.634 119.752  1.00  0.00     0.119 A 
ATOM      5  C   UNL     1     118.073 101.493 120.514  1.00  0.00     0.004 A 
ATOM      6  C   UNL     1     119.200 101.009 119.851  1.00  0.00     0.046 A 
ENDROOT
BRANCH   1   7
ATOM      7  C   UNL     1     116.378  98.249 121.600  1.00  0.00     0.083 C 
ATOM      8  O   UNL     1     117.184  99.385 124.459  1.00  0.00    -0.271 OA
ATOM      9  C   UNL     1     117.678  98.445 123.852  1.00  0.00     0.258 C 
ATOM     10  N   UNL     1     119.005  97.995 123.908  1.00  0.00    -0.313 N 
ATOM     11  C   UNL     1     116.913  97.502 122.875  1.00  0.00     0.161 C 
ATOM     12  C   UNL     1     119.194  96.851 123.124  1.00  0.00     0.050 A 
ATOM     13  N   UNL     1     115.813  96.873 123.627  1.00  0.00    -0.328 N 
ATOM     14  C   UNL     1     117.993  96.501 122.506  1.00  0.00     0.012 A 
ATOM     15  C   UNL     1     120.351  96.111 122.941  1.00  0.00     0.027 A 
ATOM     16  C   UNL     1     114.514  97.344 123.612  1.00  0.00     0.042 A 
ATOM     17  C   UNL     1     115.917  95.860 124.550  1.00  0.00     0.088 A 
ATOM     18  C   UNL     1     115.010  98.860 121.826  1.00  0.00    -0.013 C 
ATOM     19  C   UNL     1     117.920  95.389 121.682  1.00  0.00     0.009 A 
ATOM     20  C   UNL     1     120.283  94.991 122.110  1.00  0.00     0.002 A 
ATOM     21  C   UNL     1     114.164  98.424 122.769  1.00  0.00     0.023 C 
ATOM     22  C   UNL     1     113.788  96.587 124.510  1.00  0.00     0.028 A 
ATOM     23  C   UNL     1     114.670  95.649 125.095  1.00  0.00     0.020 A 
ATOM     24  C   UNL     1     119.077  94.631 121.487  1.00  0.00     0.001 A 
ATOM     25  C   UNL     1     120.057  98.601 124.691  1.00  0.00     0.153 C 
ENDBRANCH   1   7
BRANCH   4  26
ATOM     26  O   UNL     1     120.518  99.163 119.107  1.00  0.00    -0.497 OA
ATOM     27  C   UNL     1     120.973  97.859 119.466  1.00  0.00     0.278 C 
ENDBRANCH   4  26
TORSDOF 2
ENDMDL
MODEL 10
REMARK VINA RESULT:      -7.0     13.313     16.641
REMARK SMILES COc1cccc([C@@H]2C=Cc3cccn3[C@]23C(=O)N(C)c2ccccc23)c1
REMARK SMILES IDX 7 1 27 2 6 3 3 4 5 5 4 6 8 7 18 8 17 9 19 10 16 11 21 12
REMARK SMILES IDX 15 13 26 14 22 15 11 16 14 17 9 18 25 19 23 20 10 21 12 22
REMARK SMILES IDX 13 23 24 24 20 25 2 26 1 27
REMARK H PARENT
ROOT
ATOM      1  C   UNL     1     104.566  94.750 115.999  1.00  0.00    -0.034 A 
ATOM      2  C   UNL     1     104.082  94.137 117.155  1.00  0.00     0.050 A 
ATOM      3  C   UNL     1     105.942  94.828 115.776  1.00  0.00     0.005 A 
ATOM      4  C   UNL     1     104.971  93.601 118.086  1.00  0.00     0.119 A 
ATOM      5  C   UNL     1     106.831  94.294 116.707  1.00  0.00     0.004 A 
ATOM      6  C   UNL     1     106.347  93.680 117.862  1.00  0.00     0.046 A 
ENDROOT
BRANCH   1   7
ATOM      7  C   UNL     1     103.591  95.337 114.980  1.00  0.00     0.083 C 
ATOM      8  O   UNL     1     102.385  92.419 114.595  1.00  0.00    -0.271 OA
ATOM      9  C   UNL     1     103.299  92.947 113.977  1.00  0.00     0.258 C 
ATOM     10  N   UNL     1     104.408  92.321 113.390  1.00  0.00    -0.313 N 
ATOM     11  C   UNL     1     103.421  94.473 113.679  1.00  0.00     0.161 C 
ATOM     12  C   UNL     1     105.217  93.238 112.708  1.00  0.00     0.050 A 
ATOM     13  N   UNL     1     102.225  94.879 112.920  1.00  0.00    -0.328 N 
ATOM     14  C   UNL     1     104.677  94.519 112.827  1.00  0.00     0.012 A 
ATOM     15  C   UNL     1     106.379  93.000 111.995  1.00  0.00     0.027 A 
ATOM     16  C   UNL     1     101.112  95.453 113.503  1.00  0.00     0.042 A 
ATOM     17  C   UNL     1     101.961  94.624 111.595  1.00  0.00     0.088 A 
ATOM     18  C   UNL     1     102.258  95.726 115.587  1.00  0.00    -0.013 C 
ATOM     19  C   UNL     1     105.294  95.605 112.224  1.00  0.00     0.009 A 
ATOM     20  C   UNL     1     107.006  94.090 111.388  1.00  0.00     0.002 A 
ATOM     21  C   UNL     1     101.120  95.768 114.881  1.00  0.00     0.023 C 
ATOM     22  C   UNL     1     100.154  95.594 112.519  1.00  0.00     0.028 A 
ATOM     23  C   UNL     1     100.692  95.078 111.317  1.00  0.00     0.020 A 
ATOM     24  C   UNL     1     106.467  95.382 111.500  1.00  0.00     0.001 A 
ATOM     25  C   UNL     1     104.687  90.905 113.442  1.00  0.00     0.153 C 
ENDBRANCH   1   7
BRANCH   4  26
ATOM     26  O   UNL     1     104.498  93.005 119.213  1.00  0.00    -0.497 OA
ATOM     27  C   UNL     1     103.178  92.467 119.158  1.00  0.00     0.278 C 
ENDBRANCH   4  26
TORSDOF 2
ENDMDL
MODEL 11
REMARK VINA RESULT:      -7.0     12.950     15.983
REMARK SMILES COc1cccc([C@@H]2C=Cc3cccn3[C@]23C(=O)N(C)c2ccccc23)c1
REMARK SMILES IDX 7 1 27 2 6 3 3 4 5 5 4 6 8 7 18 8 17 9 19 10 16 11 21 12
REMARK SMILES IDX 15 13 26 14 22 15 11 16 14 17 9 18 25 19 23 20 10 21 12 22
REMARK SMILES IDX 13 23 24 24 20 25 2 26 1 27
REMARK H PARENT
ROOT
ATOM      1  C   UNL     1     102.174  94.112 115.452  1.00  0.00    -0.034 A 
ATOM      2  C   UNL     1     102.491  93.725 116.754  1.00  0.00     0.050 A 
ATOM      3  C   UNL     1     101.297  93.339 114.689  1.00  0.00     0.005 A 
ATOM      4  C   UNL     1     101.932  92.568 117.295  1.00  0.00     0.119 A 
ATOM      5  C   UNL     1     100.739  92.180 115.230  1.00  0.00     0.004 A 
ATOM      6  C   UNL     1     101.056  91.795 116.532  1.00  0.00     0.046 A 
ENDROOT
BRANCH   1   7
ATOM      7  C   UNL     1     102.787  95.380 114.860  1.00  0.00     0.083 C 
ATOM      8  O   UNL     1     104.339  93.545 112.778  1.00  0.00    -0.271 OA
ATOM      9  C   UNL     1     104.712  93.919 113.882  1.00  0.00     0.258 C 
ATOM     10  N   UNL     1     105.568  93.247 114.767  1.00  0.00    -0.313 N 
ATOM     11  C   UNL     1     104.323  95.271 114.554  1.00  0.00     0.161 C 
ATOM     12  C   UNL     1     105.823  94.009 115.914  1.00  0.00     0.050 A 
ATOM     13  N   UNL     1     104.770  96.358 113.665  1.00  0.00    -0.328 N 
ATOM     14  C   UNL     1     105.132  95.219 115.837  1.00  0.00     0.012 A 
ATOM     15  C   UNL     1     106.626  93.695 116.997  1.00  0.00     0.027 A 
ATOM     16  C   UNL     1     103.940  96.989 112.757  1.00  0.00     0.042 A 
ATOM     17  C   UNL     1     106.058  96.800 113.482  1.00  0.00     0.088 A 
ATOM     18  C   UNL     1     102.005  95.926 113.683  1.00  0.00    -0.013 C 
ATOM     19  C   UNL     1     105.234  96.157 116.854  1.00  0.00     0.009 A 
ATOM     20  C   UNL     1     106.730  94.635 118.025  1.00  0.00     0.002 A 
ATOM     21  C   UNL     1     102.564  96.666 112.717  1.00  0.00     0.023 C 
ATOM     22  C   UNL     1     104.716  97.865 112.024  1.00  0.00     0.028 A 
ATOM     23  C   UNL     1     106.048  97.750 112.486  1.00  0.00     0.020 A 
ATOM     24  C   UNL     1     106.041  95.857 117.953  1.00  0.00     0.001 A 
ATOM     25  C   UNL     1     106.150  91.946 114.535  1.00  0.00     0.153 C 
ENDBRANCH   1   7
BRANCH   4  26
ATOM     26  O   UNL     1     102.243  92.191 118.564  1.00  0.00    -0.497 OA
ATOM     27  C   UNL     1     103.414  92.766 119.144  1.00  0.00     0.278 C 
ENDBRANCH   4  26
TORSDOF 2
ENDMDL
MODEL 12
REMARK VINA RESULT:      -7.0     13.448     16.638
REMARK SMILES COc1cccc([C@@H]2C=Cc3cccn3[C@]23C(=O)N(C)c2ccccc23)c1
REMARK SMILES IDX 7 1 27 2 6 3 3 4 5 5 4 6 8 7 18 8 17 9 19 10 16 11 21 12
REMARK SMILES IDX 15 13 26 14 22 15 11 16 14 17 9 18 25 19 23 20 10 21 12 22
REMARK SMILES IDX 13 23 24 24 20 25 2 26 1 27
REMARK H PARENT
ROOT
ATOM      1  C   UNL     1     103.943  92.449 115.990  1.00  0.00    -0.034 A 
ATOM      2  C   UNL     1     104.596  92.783 117.176  1.00  0.00     0.050 A 
ATOM      3  C   UNL     1     102.610  92.038 116.021  1.00  0.00     0.005 A 
ATOM      4  C   UNL     1     103.918  92.707 118.393  1.00  0.00     0.119 A 
ATOM      5  C   UNL     1     101.931  91.961 117.237  1.00  0.00     0.004 A 
ATOM      6  C   UNL     1     102.585  92.295 118.422  1.00  0.00     0.046 A 
ENDROOT
BRANCH   1   7
ATOM      7  C   UNL     1     104.687  92.532 114.658  1.00  0.00     0.083 C 
ATOM      8  O   UNL     1     105.321  95.579 115.311  1.00  0.00    -0.271 OA
ATOM      9  C   UNL     1     104.361  95.119 114.709  1.00  0.00     0.258 C 
ATOM     10  N   UNL     1     103.059  95.637 114.652  1.00  0.00    -0.313 N 
ATOM     11  C   UNL     1     104.383  93.831 113.830  1.00  0.00     0.161 C 
ATOM     12  C   UNL     1     102.238  94.875 113.812  1.00  0.00     0.050 A 
ATOM     13  N   UNL     1     105.381  94.032 112.764  1.00  0.00    -0.328 N 
ATOM     14  C   UNL     1     102.967  93.809 113.284  1.00  0.00     0.012 A 
ATOM     15  C   UNL     1     100.906  95.079 113.491  1.00  0.00     0.027 A 
ATOM     16  C   UNL     1     106.679  93.564 112.839  1.00  0.00     0.042 A 
ATOM     17  C   UNL     1     105.246  94.816 111.643  1.00  0.00     0.088 A 
ATOM     18  C   UNL     1     106.175  92.272 114.790  1.00  0.00    -0.013 C 
ATOM     19  C   UNL     1     102.373  92.912 112.408  1.00  0.00     0.009 A 
ATOM     20  C   UNL     1     100.303  94.177 112.611  1.00  0.00     0.002 A 
ATOM     21  C   UNL     1     107.079  92.767 113.935  1.00  0.00     0.023 C 
ATOM     22  C   UNL     1     107.352  94.030 111.727  1.00  0.00     0.028 A 
ATOM     23  C   UNL     1     106.448  94.812 110.972  1.00  0.00     0.020 A 
ATOM     24  C   UNL     1     101.031  93.104 112.072  1.00  0.00     0.001 A 
ATOM     25  C   UNL     1     102.605  96.822 115.341  1.00  0.00     0.153 C 
ENDBRANCH   1   7
BRANCH   4  26
ATOM     26  O   UNL     1     104.557  93.031 119.549  1.00  0.00    -0.497 OA
ATOM     27  C   UNL     1     105.704  93.873 119.444  1.00  0.00     0.278 C 
ENDBRANCH   4  26
TORSDOF 2
ENDMDL
MODEL 13
REMARK VINA RESULT:      -7.0     13.151     16.153
REMARK SMILES COc1cccc([C@@H]2C=Cc3cccn3[C@]23C(=O)N(C)c2ccccc23)c1
REMARK SMILES IDX 7 1 27 2 6 3 3 4 5 5 4 6 8 7 18 8 17 9 19 10 16 11 21 12
REMARK SMILES IDX 15 13 26 14 22 15 11 16 14 17 9 18 25 19 23 20 10 21 12 22
REMARK SMILES IDX 13 23 24 24 20 25 2 26 1 27
REMARK H PARENT
ROOT
ATOM      1  C   UNL     1     105.359  94.960 114.393  1.00  0.00    -0.034 A 
ATOM      2  C   UNL     1     106.564  94.337 114.069  1.00  0.00     0.050 A 
ATOM      3  C   UNL     1     104.612  95.592 113.398  1.00  0.00     0.005 A 
ATOM      4  C   UNL     1     107.023  94.345 112.751  1.00  0.00     0.119 A 
ATOM      5  C   UNL     1     105.070  95.601 112.080  1.00  0.00     0.004 A 
ATOM      6  C   UNL     1     106.275  94.977 111.757  1.00  0.00     0.046 A 
ENDROOT
BRANCH   1   7
ATOM      7  C   UNL     1     104.858  94.951 115.836  1.00  0.00     0.083 C 
ATOM      8  O   UNL     1     105.703  91.891 116.011  1.00  0.00    -0.271 OA
ATOM      9  C   UNL     1     104.625  92.359 115.674  1.00  0.00     0.258 C 
ATOM     10  N   UNL     1     103.706  91.819 114.762  1.00  0.00    -0.313 N 
ATOM     11  C   UNL     1     104.010  93.685 116.216  1.00  0.00     0.161 C 
ATOM     12  C   UNL     1     102.548  92.602 114.673  1.00  0.00     0.050 A 
ATOM     13  N   UNL     1     103.874  93.552 117.677  1.00  0.00    -0.328 N 
ATOM     14  C   UNL     1     102.661  93.705 115.521  1.00  0.00     0.012 A 
ATOM     15  C   UNL     1     101.419  92.388 113.901  1.00  0.00     0.027 A 
ATOM     16  C   UNL     1     104.803  94.041 118.576  1.00  0.00     0.042 A 
ATOM     17  C   UNL     1     102.931  92.817 118.356  1.00  0.00     0.088 A 
ATOM     18  C   UNL     1     105.952  95.233 116.847  1.00  0.00    -0.013 C 
ATOM     19  C   UNL     1     101.631  94.629 115.619  1.00  0.00     0.009 A 
ATOM     20  C   UNL     1     100.380  93.317 113.995  1.00  0.00     0.002 A 
ATOM     21  C   UNL     1     105.904  94.796 118.112  1.00  0.00     0.023 C 
ATOM     22  C   UNL     1     104.411  93.639 119.838  1.00  0.00     0.028 A 
ATOM     23  C   UNL     1     103.229  92.874 119.699  1.00  0.00     0.020 A 
ATOM     24  C   UNL     1     100.484  94.427 114.848  1.00  0.00     0.001 A 
ATOM     25  C   UNL     1     103.893  90.596 114.019  1.00  0.00     0.153 C 
ENDBRANCH   1   7
BRANCH   4  26
ATOM     26  O   UNL     1     108.199  93.738 112.437  1.00  0.00    -0.497 OA
ATOM     27  C   UNL     1     108.863  93.028 113.481  1.00  0.00     0.278 C 
ENDBRANCH   4  26
TORSDOF 2
ENDMDL
MODEL 14
REMARK VINA RESULT:      -6.9     13.812     16.408
REMARK SMILES COc1cccc([C@@H]2C=Cc3cccn3[C@]23C(=O)N(C)c2ccccc23)c1
REMARK SMILES IDX 7 1 27 2 6 3 3 4 5 5 4 6 8 7 18 8 17 9 19 10 16 11 21 12
REMARK SMILES IDX 15 13 26 14 22 15 11 16 14 17 9 18 25 19 23 20 10 21 12 22
REMARK SMILES IDX 13 23 24 24 20 25 2 26 1 27
REMARK H PARENT
ROOT
ATOM      1  C   UNL     1     103.462  96.831 114.699  1.00  0.00    -0.034 A 
ATOM      2  C   UNL     1     103.493  96.680 116.085  1.00  0.00     0.050 A 
ATOM      3  C   UNL     1     102.301  97.290 114.075  1.00  0.00     0.005 A 
ATOM      4  C   UNL     1     102.367  96.987 116.848  1.00  0.00     0.119 A 
ATOM      5  C   UNL     1     101.173  97.597 114.837  1.00  0.00     0.004 A 
ATOM      6  C   UNL     1     101.207  97.446 116.223  1.00  0.00     0.046 A 
ENDROOT
BRANCH   1   7
ATOM      7  C   UNL     1     104.696  96.494 113.865  1.00  0.00     0.083 C 
ATOM      8  O   UNL     1     102.863  94.593 112.093  1.00  0.00    -0.271 OA
ATOM      9  C   UNL     1     103.502  94.307 113.096  1.00  0.00     0.258 C 
ATOM     10  N   UNL     1     103.195  93.331 114.056  1.00  0.00    -0.313 N 
ATOM     11  C   UNL     1     104.848  94.967 113.526  1.00  0.00     0.161 C 
ATOM     12  C   UNL     1     104.192  93.241 115.035  1.00  0.00     0.050 A 
ATOM     13  N   UNL     1     105.819  94.755 112.438  1.00  0.00    -0.328 N 
ATOM     14  C   UNL     1     105.200  94.167 114.766  1.00  0.00     0.012 A 
ATOM     15  C   UNL     1     104.255  92.390 116.127  1.00  0.00     0.027 A 
ATOM     16  C   UNL     1     106.088  95.697 111.463  1.00  0.00     0.042 A 
ATOM     17  C   UNL     1     106.472  93.586 112.130  1.00  0.00     0.088 A 
ATOM     18  C   UNL     1     104.843  97.371 112.638  1.00  0.00    -0.013 C 
ATOM     19  C   UNL     1     106.311  94.263 115.591  1.00  0.00     0.009 A 
ATOM     20  C   UNL     1     105.370  92.485 116.962  1.00  0.00     0.002 A 
ATOM     21  C   UNL     1     105.491  96.976 111.533  1.00  0.00     0.023 C 
ATOM     22  C   UNL     1     106.953  95.119 110.555  1.00  0.00     0.028 A 
ATOM     23  C   UNL     1     107.200  93.792 110.980  1.00  0.00     0.020 A 
ATOM     24  C   UNL     1     106.390  93.411 116.696  1.00  0.00     0.001 A 
ATOM     25  C   UNL     1     102.020  92.492 114.042  1.00  0.00     0.153 C 
ENDBRANCH   1   7
BRANCH   4  26
ATOM     26  O   UNL     1     102.399  96.837 118.200  1.00  0.00    -0.497 OA
ATOM     27  C   UNL     1     103.423  96.001 118.737  1.00  0.00     0.278 C 
ENDBRANCH   4  26
TORSDOF 2
ENDMDL
MODEL 15
REMARK VINA RESULT:      -6.9     12.376     16.006
REMARK SMILES COc1cccc([C@@H]2C=Cc3cccn3[C@]23C(=O)N(C)c2ccccc23)c1
REMARK SMILES IDX 7 1 27 2 6 3 3 4 5 5 4 6 8 7 18 8 17 9 19 10 16 11 21 12
REMARK SMILES IDX 15 13 26 14 22 15 11 16 14 17 9 18 25 19 23 20 10 21 12 22
REMARK SMILES IDX 13 23 24 24 20 25 2 26 1 27
REMARK H PARENT
ROOT
ATOM      1  C   UNL     1     102.868  95.690 114.068  1.00  0.00    -0.034 A 
ATOM      2  C   UNL     1     102.173  94.700 113.373  1.00  0.00     0.050 A 
ATOM      3  C   UNL     1     102.957  96.979 113.542  1.00  0.00     0.005 A 
ATOM      4  C   UNL     1     101.566  94.998 112.153  1.00  0.00     0.119 A 
ATOM      5  C   UNL     1     102.350  97.278 112.322  1.00  0.00     0.004 A 
ATOM      6  C   UNL     1     101.655  96.288 111.628  1.00  0.00     0.046 A 
ENDROOT
BRANCH   1   7
ATOM      7  C   UNL     1     103.534  95.362 115.404  1.00  0.00     0.083 C 
ATOM      8  O   UNL     1     106.298  96.316 114.154  1.00  0.00    -0.271 OA
ATOM      9  C   UNL     1     105.816  95.191 114.154  1.00  0.00     0.258 C 
ATOM     10  N   UNL     1     105.985  94.189 113.188  1.00  0.00    -0.313 N 
ATOM     11  C   UNL     1     104.903  94.603 115.273  1.00  0.00     0.161 C 
ATOM     12  C   UNL     1     105.332  93.006 113.555  1.00  0.00     0.050 A 
ATOM     13  N   UNL     1     105.659  94.644 116.537  1.00  0.00    -0.328 N 
ATOM     14  C   UNL     1     104.694  93.182 114.782  1.00  0.00     0.012 A 
ATOM     15  C   UNL     1     105.284  91.800 112.874  1.00  0.00     0.027 A 
ATOM     16  C   UNL     1     105.531  95.655 117.469  1.00  0.00     0.042 A 
ATOM     17  C   UNL     1     106.685  93.810 116.913  1.00  0.00     0.088 A 
ATOM     18  C   UNL     1     103.626  96.556 116.332  1.00  0.00    -0.013 C 
ATOM     19  C   UNL     1     103.985  92.143 115.367  1.00  0.00     0.009 A 
ATOM     20  C   UNL     1     104.570  90.752 113.457  1.00  0.00     0.002 A 
ATOM     21  C   UNL     1     104.566  96.671 117.280  1.00  0.00     0.023 C 
ATOM     22  C   UNL     1     106.464  95.427 118.461  1.00  0.00     0.028 A 
ATOM     23  C   UNL     1     107.186  94.261 118.114  1.00  0.00     0.020 A 
ATOM     24  C   UNL     1     103.927  90.920 114.694  1.00  0.00     0.001 A 
ATOM     25  C   UNL     1     106.753  94.326 111.973  1.00  0.00     0.153 C 
ENDBRANCH   1   7
BRANCH   4  26
ATOM     26  O   UNL     1     100.890  94.031 111.476  1.00  0.00    -0.497 OA
ATOM     27  C   UNL     1     101.218  92.676 111.777  1.00  0.00     0.278 C 
ENDBRANCH   4  26
TORSDOF 2
ENDMDL
