MODEL 1
REMARK VINA RESULT:      -8.4      0.000      0.000
REMARK SMILES O=C(/C=C/c1ccccc1Cl)N1CCN(c2ccc3ccccc3n2)CC1
REMARK SMILES IDX 3 1 4 2 5 3 10 4 9 5 6 6 8 7 7 8 11 9 2 10 1 11 12 12 13 13
REMARK SMILES IDX 27 14 14 15 26 16 15 17 16 18 25 19 17 20 24 21 18 22 19 23
REMARK SMILES IDX 23 24 20 25 22 26 21 27
REMARK H PARENT
ROOT
ATOM      1  C   UNL     1      97.331 107.587 112.340  1.00  0.00     0.072 C 
ATOM      2  C   UNL     1      96.787 106.551 112.992  1.00  0.00     0.015 C 
ENDROOT
BRANCH   2   3
ATOM      3  C   UNL     1      97.466 105.767 114.039  1.00  0.00    -0.007 A 
ATOM      4  C   UNL     1      97.819 106.320 115.269  1.00  0.00     0.048 A 
ATOM      5  C   UNL     1      98.461 105.536 116.228  1.00  0.00     0.021 A 
ATOM      6  C   UNL     1      97.755 104.430 113.766  1.00  0.00     0.009 A 
ATOM      7  C   UNL     1      98.749 104.198 115.955  1.00  0.00     0.002 A 
ATOM      8  C   UNL     1      98.397 103.645 114.724  1.00  0.00     0.001 A 
ATOM      9  Cl  UNL     1      97.485 107.971 115.660  1.00  0.00    -0.084 Cl
ENDBRANCH   2   3
BRANCH   1  10
ATOM     10  C   UNL     1      96.516 108.282 111.322  1.00  0.00     0.246 C 
ATOM     11  O   UNL     1      95.565 108.962 111.706  1.00  0.00    -0.270 OA
ATOM     12  N   UNL     1      96.882 108.107 109.988  1.00  0.00    -0.336 N 
ATOM     13  C   UNL     1      96.100 108.766 108.944  1.00  0.00     0.141 C 
ATOM     14  C   UNL     1      98.016 107.297 109.531  1.00  0.00     0.141 C 
ATOM     15  C   UNL     1      95.988 107.899 107.692  1.00  0.00     0.139 C 
ATOM     16  C   UNL     1      98.452 107.625 108.102  1.00  0.00     0.139 C 
ATOM     17  N   UNL     1      97.317 107.552 107.181  1.00  0.00    -0.353 N 
BRANCH  17  18
ATOM     18  C   UNL     1      97.496 107.226 105.838  1.00  0.00     0.129 A 
ATOM     19  N   UNL     1      96.421 107.245 105.018  1.00  0.00    -0.231 NA
ATOM     20  C   UNL     1      98.776 106.903 105.431  1.00  0.00     0.047 A 
ATOM     21  C   UNL     1      96.603 106.930 103.722  1.00  0.00     0.073 A 
ATOM     22  C   UNL     1      98.959 106.579 104.095  1.00  0.00     0.014 A 
ATOM     23  C   UNL     1      97.872 106.585 103.211  1.00  0.00     0.000 A 
ATOM     24  C   UNL     1      95.523 106.937 102.844  1.00  0.00     0.029 A 
ATOM     25  C   UNL     1      98.026 106.261 101.852  1.00  0.00     0.010 A 
ATOM     26  C   UNL     1      95.676 106.614 101.493  1.00  0.00     0.002 A 
ATOM     27  C   UNL     1      96.929 106.276 100.996  1.00  0.00     0.001 A 
ENDBRANCH  17  18
ENDBRANCH   1  10
TORSDOF 3
ENDMDL
MODEL 2
REMARK VINA RESULT:      -6.9     12.368     16.059
REMARK SMILES O=C(/C=C/c1ccccc1Cl)N1CCN(c2ccc3ccccc3n2)CC1
REMARK SMILES IDX 3 1 4 2 5 3 10 4 9 5 6 6 8 7 7 8 11 9 2 10 1 11 12 12 13 13
REMARK SMILES IDX 27 14 14 15 26 16 15 17 16 18 25 19 17 20 24 21 18 22 19 23
REMARK SMILES IDX 23 24 20 25 22 26 21 27
REMARK H PARENT
ROOT
ATOM      1  C   UNL     1      98.394  94.796 108.108  1.00  0.00     0.072 C 
ATOM      2  C   UNL     1      98.963  95.299 107.004  1.00  0.00     0.015 C 
ENDROOT
BRANCH   2   3
ATOM      3  C   UNL     1      98.864  94.701 105.662  1.00  0.00    -0.007 A 
ATOM      4  C   UNL     1      99.936  94.039 105.062  1.00  0.00     0.048 A 
ATOM      5  C   UNL     1      99.792  93.490 103.788  1.00  0.00     0.021 A 
ATOM      6  C   UNL     1      97.649  94.813 104.986  1.00  0.00     0.009 A 
ATOM      7  C   UNL     1      98.576  93.602 103.114  1.00  0.00     0.002 A 
ATOM      8  C   UNL     1      97.504  94.264 103.712  1.00  0.00     0.001 A 
ATOM      9  Cl  UNL     1     101.464  93.871 105.853  1.00  0.00    -0.084 Cl
ENDBRANCH   2   3
BRANCH   1  10
ATOM     10  C   UNL     1      98.575  95.519 109.383  1.00  0.00     0.246 C 
ATOM     11  O   UNL     1      97.798  96.438 109.643  1.00  0.00    -0.270 OA
ATOM     12  N   UNL     1      99.627  95.111 110.202  1.00  0.00    -0.336 N 
ATOM     13  C   UNL     1      99.852  95.804 111.468  1.00  0.00     0.141 C 
ATOM     14  C   UNL     1     100.552  94.016 109.892  1.00  0.00     0.141 C 
ATOM     15  C   UNL     1     101.340  95.922 111.790  1.00  0.00     0.139 C 
ATOM     16  C   UNL     1     101.306  93.500 111.119  1.00  0.00     0.139 C 
ATOM     17  N   UNL     1     101.970  94.599 111.822  1.00  0.00    -0.353 N 
BRANCH  17  18
ATOM     18  C   UNL     1     103.133  94.386 112.558  1.00  0.00     0.129 A 
ATOM     19  N   UNL     1     104.291  94.173 111.892  1.00  0.00    -0.231 NA
ATOM     20  C   UNL     1     103.025  94.409 113.934  1.00  0.00     0.047 A 
ATOM     21  C   UNL     1     105.411  93.970 112.611  1.00  0.00     0.073 A 
ATOM     22  C   UNL     1     104.180  94.199 114.672  1.00  0.00     0.014 A 
ATOM     23  C   UNL     1     105.401  93.974 114.022  1.00  0.00     0.000 A 
ATOM     24  C   UNL     1     106.624  93.746 111.966  1.00  0.00     0.029 A 
ATOM     25  C   UNL     1     106.589  93.758 114.741  1.00  0.00     0.010 A 
ATOM     26  C   UNL     1     107.806  93.531 112.680  1.00  0.00     0.002 A 
ATOM     27  C   UNL     1     107.788  93.537 114.069  1.00  0.00     0.001 A 
ENDBRANCH  17  18
ENDBRANCH   1  10
TORSDOF 3
ENDMDL
MODEL 3
REMARK VINA RESULT:      -6.5      9.733     13.893
REMARK SMILES O=C(/C=C/c1ccccc1Cl)N1CCN(c2ccc3ccccc3n2)CC1
REMARK SMILES IDX 3 1 4 2 5 3 10 4 9 5 6 6 8 7 7 8 11 9 2 10 1 11 12 12 13 13
REMARK SMILES IDX 27 14 14 15 26 16 15 17 16 18 25 19 17 20 24 21 18 22 19 23
REMARK SMILES IDX 23 24 20 25 22 26 21 27
REMARK H PARENT
ROOT
ATOM      1  C   UNL     1      98.754  99.029 115.590  1.00  0.00     0.072 C 
ATOM      2  C   UNL     1      98.715 100.213 116.216  1.00  0.00     0.015 C 
ENDROOT
BRANCH   2   3
ATOM      3  C   UNL     1      98.299 101.480 115.591  1.00  0.00    -0.007 A 
ATOM      4  C   UNL     1      98.806 102.713 116.001  1.00  0.00     0.048 A 
ATOM      5  C   UNL     1      98.380 103.885 115.377  1.00  0.00     0.021 A 
ATOM      6  C   UNL     1      97.365 101.419 114.556  1.00  0.00     0.009 A 
ATOM      7  C   UNL     1      97.447 103.824 114.341  1.00  0.00     0.002 A 
ATOM      8  C   UNL     1      96.939 102.591 113.931  1.00  0.00     0.001 A 
ATOM      9  Cl  UNL     1      99.964 102.845 117.278  1.00  0.00    -0.084 Cl
ENDBRANCH   2   3
BRANCH   1  10
ATOM     10  C   UNL     1      99.184  97.842 116.359  1.00  0.00     0.246 C 
ATOM     11  O   UNL     1      98.539  97.537 117.362  1.00  0.00    -0.270 OA
ATOM     12  N   UNL     1     100.304  97.155 115.893  1.00  0.00    -0.336 N 
ATOM     13  C   UNL     1     100.773  95.981 116.625  1.00  0.00     0.141 C 
ATOM     14  C   UNL     1     101.071  97.519 114.697  1.00  0.00     0.141 C 
ATOM     15  C   UNL     1     102.296  95.881 116.613  1.00  0.00     0.139 C 
ATOM     16  C   UNL     1     101.947  96.379 114.175  1.00  0.00     0.139 C 
ATOM     17  N   UNL     1     102.803  95.851 115.238  1.00  0.00    -0.353 N 
BRANCH  17  18
ATOM     18  C   UNL     1     104.038  95.274 114.952  1.00  0.00     0.129 A 
ATOM     19  N   UNL     1     104.410  95.147 113.657  1.00  0.00    -0.231 NA
ATOM     20  C   UNL     1     104.809  94.865 116.022  1.00  0.00     0.047 A 
ATOM     21  C   UNL     1     105.605  94.589 113.390  1.00  0.00     0.073 A 
ATOM     22  C   UNL     1     106.040  94.290 115.743  1.00  0.00     0.014 A 
ATOM     23  C   UNL     1     106.464  94.140 114.416  1.00  0.00     0.000 A 
ATOM     24  C   UNL     1     106.026  94.440 112.071  1.00  0.00     0.029 A 
ATOM     25  C   UNL     1     107.705  93.562 114.100  1.00  0.00     0.010 A 
ATOM     26  C   UNL     1     107.260  93.864 111.757  1.00  0.00     0.002 A 
ATOM     27  C   UNL     1     108.100  93.425 112.772  1.00  0.00     0.001 A 
ENDBRANCH  17  18
ENDBRANCH   1  10
TORSDOF 3
ENDMDL
MODEL 4
REMARK VINA RESULT:      -6.4     12.447     16.404
REMARK SMILES O=C(/C=C/c1ccccc1Cl)N1CCN(c2ccc3ccccc3n2)CC1
REMARK SMILES IDX 3 1 4 2 5 3 10 4 9 5 6 6 8 7 7 8 11 9 2 10 1 11 12 12 13 13
REMARK SMILES IDX 27 14 14 15 26 16 15 17 16 18 25 19 17 20 24 21 18 22 19 23
REMARK SMILES IDX 23 24 20 25 22 26 21 27
REMARK H PARENT
ROOT
ATOM      1  C   UNL     1      99.308  94.359 108.037  1.00  0.00     0.072 C 
ATOM      2  C   UNL     1      99.954  94.914 107.003  1.00  0.00     0.015 C 
ENDROOT
BRANCH   2   3
ATOM      3  C   UNL     1     100.250  94.230 105.733  1.00  0.00    -0.007 A 
ATOM      4  C   UNL     1      99.295  94.081 104.729  1.00  0.00     0.048 A 
ATOM      5  C   UNL     1      99.625  93.424 103.543  1.00  0.00     0.021 A 
ATOM      6  C   UNL     1     101.537  93.722 105.552  1.00  0.00     0.009 A 
ATOM      7  C   UNL     1     100.912  92.917 103.362  1.00  0.00     0.002 A 
ATOM      8  C   UNL     1     101.868  93.066 104.367  1.00  0.00     0.001 A 
ATOM      9  Cl  UNL     1      97.685  94.690 104.900  1.00  0.00    -0.084 Cl
ENDBRANCH   2   3
BRANCH   1  10
ATOM     10  C   UNL     1      99.075  95.180 109.243  1.00  0.00     0.246 C 
ATOM     11  O   UNL     1      98.201  96.046 109.194  1.00  0.00    -0.270 OA
ATOM     12  N   UNL     1      99.875  94.919 110.354  1.00  0.00    -0.336 N 
ATOM     13  C   UNL     1      99.689  95.713 111.567  1.00  0.00     0.141 C 
ATOM     14  C   UNL     1     100.915  93.887 110.412  1.00  0.00     0.141 C 
ATOM     15  C   UNL     1     101.015  95.977 112.276  1.00  0.00     0.139 C 
ATOM     16  C   UNL     1     101.322  93.522 111.840  1.00  0.00     0.139 C 
ATOM     17  N   UNL     1     101.690  94.717 112.599  1.00  0.00    -0.353 N 
BRANCH  17  18
ATOM     18  C   UNL     1     102.609  94.655 113.645  1.00  0.00     0.129 A 
ATOM     19  N   UNL     1     103.884  94.299 113.367  1.00  0.00    -0.231 NA
ATOM     20  C   UNL     1     102.149  94.964 114.910  1.00  0.00     0.047 A 
ATOM     21  C   UNL     1     104.765  94.242 114.384  1.00  0.00     0.073 A 
ATOM     22  C   UNL     1     103.060  94.904 115.955  1.00  0.00     0.014 A 
ATOM     23  C   UNL     1     104.390  94.540 115.711  1.00  0.00     0.000 A 
ATOM     24  C   UNL     1     106.087  93.880 114.141  1.00  0.00     0.029 A 
ATOM     25  C   UNL     1     105.336  94.469 116.748  1.00  0.00     0.010 A 
ATOM     26  C   UNL     1     107.028  93.810 115.172  1.00  0.00     0.002 A 
ATOM     27  C   UNL     1     106.652  94.105 116.477  1.00  0.00     0.001 A 
ENDBRANCH  17  18
ENDBRANCH   1  10
TORSDOF 3
ENDMDL
MODEL 5
REMARK VINA RESULT:      -6.2     12.825     14.012
REMARK SMILES O=C(/C=C/c1ccccc1Cl)N1CCN(c2ccc3ccccc3n2)CC1
REMARK SMILES IDX 3 1 4 2 5 3 10 4 9 5 6 6 8 7 7 8 11 9 2 10 1 11 12 12 13 13
REMARK SMILES IDX 27 14 14 15 26 16 15 17 16 18 25 19 17 20 24 21 18 22 19 23
REMARK SMILES IDX 23 24 20 25 22 26 21 27
REMARK H PARENT
ROOT
ATOM      1  C   UNL     1     100.555  94.128 110.320  1.00  0.00     0.072 C 
ATOM      2  C   UNL     1     101.609  93.901 111.115  1.00  0.00     0.015 C 
ENDROOT
BRANCH   2   3
ATOM      3  C   UNL     1     102.258  94.918 111.960  1.00  0.00    -0.007 A 
ATOM      4  C   UNL     1     103.420  94.652 112.684  1.00  0.00     0.048 A 
ATOM      5  C   UNL     1     103.996  95.649 113.471  1.00  0.00     0.021 A 
ATOM      6  C   UNL     1     101.672  96.182 112.023  1.00  0.00     0.009 A 
ATOM      7  C   UNL     1     103.411  96.914 113.532  1.00  0.00     0.002 A 
ATOM      8  C   UNL     1     102.248  97.181 112.809  1.00  0.00     0.001 A 
ATOM      9  Cl  UNL     1     104.188  93.103 112.643  1.00  0.00    -0.084 Cl
ENDBRANCH   2   3
BRANCH   1  10
ATOM     10  C   UNL     1     100.008  92.998 109.540  1.00  0.00     0.246 C 
ATOM     11  O   UNL     1      99.731  91.960 110.140  1.00  0.00    -0.270 OA
ATOM     12  N   UNL     1      99.853  93.189 108.168  1.00  0.00    -0.336 N 
ATOM     13  C   UNL     1      99.326  92.098 107.353  1.00  0.00     0.141 C 
ATOM     14  C   UNL     1     100.183  94.427 107.453  1.00  0.00     0.141 C 
ATOM     15  C   UNL     1      99.983  92.054 105.975  1.00  0.00     0.139 C 
ATOM     16  C   UNL     1      99.520  94.522 106.078  1.00  0.00     0.139 C 
ATOM     17  N   UNL     1      99.808  93.332 105.278  1.00  0.00    -0.353 N 
BRANCH  17  18
ATOM     18  C   UNL     1      99.853  93.390 103.887  1.00  0.00     0.129 A 
ATOM     19  N   UNL     1     100.836  92.723 103.241  1.00  0.00    -0.231 NA
ATOM     20  C   UNL     1      98.877  94.134 103.253  1.00  0.00     0.047 A 
ATOM     21  C   UNL     1     100.871  92.783 101.896  1.00  0.00     0.073 A 
ATOM     22  C   UNL     1      98.915  94.194 101.868  1.00  0.00     0.014 A 
ATOM     23  C   UNL     1      99.918  93.518 101.160  1.00  0.00     0.000 A 
ATOM     24  C   UNL     1     101.866  92.112 101.193  1.00  0.00     0.029 A 
ATOM     25  C   UNL     1      99.984  93.560  99.756  1.00  0.00     0.010 A 
ATOM     26  C   UNL     1     101.933  92.153  99.798  1.00  0.00     0.002 A 
ATOM     27  C   UNL     1     100.991  92.878  99.079  1.00  0.00     0.001 A 
ENDBRANCH  17  18
ENDBRANCH   1  10
TORSDOF 3
ENDMDL
MODEL 6
REMARK VINA RESULT:      -6.2     12.895     13.991
REMARK SMILES O=C(/C=C/c1ccccc1Cl)N1CCN(c2ccc3ccccc3n2)CC1
REMARK SMILES IDX 3 1 4 2 5 3 10 4 9 5 6 6 8 7 7 8 11 9 2 10 1 11 12 12 13 13
REMARK SMILES IDX 27 14 14 15 26 16 15 17 16 18 25 19 17 20 24 21 18 22 19 23
REMARK SMILES IDX 23 24 20 25 22 26 21 27
REMARK H PARENT
ROOT
ATOM      1  C   UNL     1      99.778  94.490 109.997  1.00  0.00     0.072 C 
ATOM      2  C   UNL     1     100.822  94.103 110.743  1.00  0.00     0.015 C 
ENDROOT
BRANCH   2   3
ATOM      3  C   UNL     1     101.604  94.993 111.618  1.00  0.00    -0.007 A 
ATOM      4  C   UNL     1     102.573  94.508 112.495  1.00  0.00     0.048 A 
ATOM      5  C   UNL     1     103.287  95.391 113.305  1.00  0.00     0.021 A 
ATOM      6  C   UNL     1     101.348  96.362 111.550  1.00  0.00     0.009 A 
ATOM      7  C   UNL     1     103.032  96.761 113.236  1.00  0.00     0.002 A 
ATOM      8  C   UNL     1     102.062  97.247 112.359  1.00  0.00     0.001 A 
ATOM      9  Cl  UNL     1     102.931  92.820 112.621  1.00  0.00    -0.084 Cl
ENDBRANCH   2   3
BRANCH   1  10
ATOM     10  C   UNL     1      99.086  93.474 109.177  1.00  0.00     0.246 C 
ATOM     11  O   UNL     1      98.312  92.702 109.742  1.00  0.00    -0.270 OA
ATOM     12  N   UNL     1      99.371  93.457 107.812  1.00  0.00    -0.336 N 
ATOM     13  C   UNL     1      98.719  92.464 106.962  1.00  0.00     0.141 C 
ATOM     14  C   UNL     1     100.293  94.377 107.139  1.00  0.00     0.141 C 
ATOM     15  C   UNL     1      99.650  91.969 105.857  1.00  0.00     0.139 C 
ATOM     16  C   UNL     1     100.088  94.433 105.624  1.00  0.00     0.139 C 
ATOM     17  N   UNL     1     100.130  93.090 105.044  1.00  0.00    -0.353 N 
BRANCH  17  18
ATOM     18  C   UNL     1     100.550  92.882 103.732  1.00  0.00     0.129 A 
ATOM     19  N   UNL     1      99.751  93.295 102.722  1.00  0.00    -0.231 NA
ATOM     20  C   UNL     1     101.770  92.261 103.549  1.00  0.00     0.047 A 
ATOM     21  C   UNL     1     100.165  93.092 101.457  1.00  0.00     0.073 A 
ATOM     22  C   UNL     1     102.194  92.053 102.245  1.00  0.00     0.014 A 
ATOM     23  C   UNL     1     101.396  92.465 101.169  1.00  0.00     0.000 A 
ATOM     24  C   UNL     1      99.373  93.502 100.389  1.00  0.00     0.029 A 
ATOM     25  C   UNL     1     101.798  92.268  99.837  1.00  0.00     0.010 A 
ATOM     26  C   UNL     1      99.771  93.305  99.064  1.00  0.00     0.002 A 
ATOM     27  C   UNL     1     100.985  92.688  98.788  1.00  0.00     0.001 A 
ENDBRANCH  17  18
ENDBRANCH   1  10
TORSDOF 3
ENDMDL
MODEL 7
REMARK VINA RESULT:      -6.0     11.804     15.418
REMARK SMILES O=C(/C=C/c1ccccc1Cl)N1CCN(c2ccc3ccccc3n2)CC1
REMARK SMILES IDX 3 1 4 2 5 3 10 4 9 5 6 6 8 7 7 8 11 9 2 10 1 11 12 12 13 13
REMARK SMILES IDX 27 14 14 15 26 16 15 17 16 18 25 19 17 20 24 21 18 22 19 23
REMARK SMILES IDX 23 24 20 25 22 26 21 27
REMARK H PARENT
ROOT
ATOM      1  C   UNL     1      98.757  94.681 104.963  1.00  0.00     0.072 C 
ATOM      2  C   UNL     1      99.026  93.427 104.577  1.00  0.00     0.015 C 
ENDROOT
BRANCH   2   3
ATOM      3  C   UNL     1      99.981  93.062 103.516  1.00  0.00    -0.007 A 
ATOM      4  C   UNL     1     101.354  92.989 103.745  1.00  0.00     0.048 A 
ATOM      5  C   UNL     1     102.218  92.639 102.707  1.00  0.00     0.021 A 
ATOM      6  C   UNL     1      99.470  92.786 102.248  1.00  0.00     0.009 A 
ATOM      7  C   UNL     1     101.706  92.361 101.439  1.00  0.00     0.002 A 
ATOM      8  C   UNL     1     100.332  92.435 101.209  1.00  0.00     0.001 A 
ATOM      9  Cl  UNL     1     102.041  93.321 105.297  1.00  0.00    -0.084 Cl
ENDBRANCH   2   3
BRANCH   1  10
ATOM     10  C   UNL     1      97.780  94.886 106.053  1.00  0.00     0.246 C 
ATOM     11  O   UNL     1      96.586  94.937 105.759  1.00  0.00    -0.270 OA
ATOM     12  N   UNL     1      98.288  95.016 107.345  1.00  0.00    -0.336 N 
ATOM     13  C   UNL     1      97.362  95.230 108.454  1.00  0.00     0.141 C 
ATOM     14  C   UNL     1      99.711  94.954 107.695  1.00  0.00     0.141 C 
ATOM     15  C   UNL     1      97.950  96.167 109.507  1.00  0.00     0.139 C 
ATOM     16  C   UNL     1      99.953  94.685 109.181  1.00  0.00     0.139 C 
ATOM     17  N   UNL     1      99.225  95.646 110.010  1.00  0.00    -0.353 N 
BRANCH  17  18
ATOM     18  C   UNL     1      99.690  96.011 111.271  1.00  0.00     0.129 A 
ATOM     19  N   UNL     1     101.010  96.257 111.429  1.00  0.00    -0.231 NA
ATOM     20  C   UNL     1      98.759  96.098 112.288  1.00  0.00     0.047 A 
ATOM     21  C   UNL     1     101.451  96.610 112.651  1.00  0.00     0.073 A 
ATOM     22  C   UNL     1      99.217  96.461 113.546  1.00  0.00     0.014 A 
ATOM     23  C   UNL     1     100.577  96.725 113.753  1.00  0.00     0.000 A 
ATOM     24  C   UNL     1     102.802  96.872 112.857  1.00  0.00     0.029 A 
ATOM     25  C   UNL     1     101.071  97.095 115.016  1.00  0.00     0.010 A 
ATOM     26  C   UNL     1     103.294  97.240 114.112  1.00  0.00     0.002 A 
ATOM     27  C   UNL     1     102.428  97.352 115.192  1.00  0.00     0.001 A 
ENDBRANCH  17  18
ENDBRANCH   1  10
TORSDOF 3
ENDMDL
MODEL 8
REMARK VINA RESULT:      -6.0     12.029     15.633
REMARK SMILES O=C(/C=C/c1ccccc1Cl)N1CCN(c2ccc3ccccc3n2)CC1
REMARK SMILES IDX 3 1 4 2 5 3 10 4 9 5 6 6 8 7 7 8 11 9 2 10 1 11 12 12 13 13
REMARK SMILES IDX 27 14 14 15 26 16 15 17 16 18 25 19 17 20 24 21 18 22 19 23
REMARK SMILES IDX 23 24 20 25 22 26 21 27
REMARK H PARENT
ROOT
ATOM      1  C   UNL     1      97.783  95.169 109.628  1.00  0.00     0.072 C 
ATOM      2  C   UNL     1      97.932  95.927 108.533  1.00  0.00     0.015 C 
ENDROOT
BRANCH   2   3
ATOM      3  C   UNL     1      97.569  95.510 107.168  1.00  0.00    -0.007 A 
ATOM      4  C   UNL     1      98.503  94.971 106.283  1.00  0.00     0.048 A 
ATOM      5  C   UNL     1      98.110  94.591 104.999  1.00  0.00     0.021 A 
ATOM      6  C   UNL     1      96.242  95.670 106.769  1.00  0.00     0.009 A 
ATOM      7  C   UNL     1      96.782  94.750 104.601  1.00  0.00     0.002 A 
ATOM      8  C   UNL     1      95.848  95.290 105.486  1.00  0.00     0.001 A 
ATOM      9  Cl  UNL     1     100.160  94.751 106.724  1.00  0.00    -0.084 Cl
ENDBRANCH   2   3
BRANCH   1  10
ATOM     10  C   UNL     1      98.184  95.735 110.933  1.00  0.00     0.246 C 
ATOM     11  O   UNL     1      97.454  96.582 111.446  1.00  0.00    -0.270 OA
ATOM     12  N   UNL     1      99.376  95.270 111.488  1.00  0.00    -0.336 N 
ATOM     13  C   UNL     1      99.819  95.807 112.772  1.00  0.00     0.141 C 
ATOM     14  C   UNL     1     100.245  94.259 110.877  1.00  0.00     0.141 C 
ATOM     15  C   UNL     1     101.338  95.943 112.832  1.00  0.00     0.139 C 
ATOM     16  C   UNL     1     101.220  93.625 111.869  1.00  0.00     0.139 C 
ATOM     17  N   UNL     1     101.985  94.652 112.578  1.00  0.00    -0.353 N 
BRANCH  17  18
ATOM     18  C   UNL     1     103.267  94.397 113.057  1.00  0.00     0.129 A 
ATOM     19  N   UNL     1     104.268  94.213 112.166  1.00  0.00    -0.231 NA
ATOM     20  C   UNL     1     103.432  94.346 114.428  1.00  0.00     0.047 A 
ATOM     21  C   UNL     1     105.505  93.968 112.639  1.00  0.00     0.073 A 
ATOM     22  C   UNL     1     104.707  94.093 114.911  1.00  0.00     0.014 A 
ATOM     23  C   UNL     1     105.772  93.897 114.022  1.00  0.00     0.000 A 
ATOM     24  C   UNL     1     106.563  93.774 111.756  1.00  0.00     0.029 A 
ATOM     25  C   UNL     1     107.076  93.638 114.480  1.00  0.00     0.010 A 
ATOM     26  C   UNL     1     107.859  93.516 112.211  1.00  0.00     0.002 A 
ATOM     27  C   UNL     1     108.115  93.448 113.575  1.00  0.00     0.001 A 
ENDBRANCH  17  18
ENDBRANCH   1  10
TORSDOF 3
ENDMDL
MODEL 9
REMARK VINA RESULT:      -6.0     12.795     13.882
REMARK SMILES O=C(/C=C/c1ccccc1Cl)N1CCN(c2ccc3ccccc3n2)CC1
REMARK SMILES IDX 3 1 4 2 5 3 10 4 9 5 6 6 8 7 7 8 11 9 2 10 1 11 12 12 13 13
REMARK SMILES IDX 27 14 14 15 26 16 15 17 16 18 25 19 17 20 24 21 18 22 19 23
REMARK SMILES IDX 23 24 20 25 22 26 21 27
REMARK H PARENT
ROOT
ATOM      1  C   UNL     1      99.465  94.013 109.496  1.00  0.00     0.072 C 
ATOM      2  C   UNL     1     100.318  94.757 110.213  1.00  0.00     0.015 C 
ENDROOT
BRANCH   2   3
ATOM      3  C   UNL     1     101.047  94.286 111.403  1.00  0.00    -0.007 A 
ATOM      4  C   UNL     1     101.781  95.150 112.215  1.00  0.00     0.048 A 
ATOM      5  C   UNL     1     102.455  94.656 113.332  1.00  0.00     0.021 A 
ATOM      6  C   UNL     1     100.987  92.926 111.708  1.00  0.00     0.009 A 
ATOM      7  C   UNL     1     102.393  93.296 113.637  1.00  0.00     0.002 A 
ATOM      8  C   UNL     1     101.659  92.430 112.824  1.00  0.00     0.001 A 
ATOM      9  Cl  UNL     1     101.890  96.845 111.884  1.00  0.00    -0.084 Cl
ENDBRANCH   2   3
BRANCH   1  10
ATOM     10  C   UNL     1      98.818  94.627 108.318  1.00  0.00     0.246 C 
ATOM     11  O   UNL     1      97.823  95.328 108.502  1.00  0.00    -0.270 OA
ATOM     12  N   UNL     1      99.380  94.356 107.071  1.00  0.00    -0.336 N 
ATOM     13  C   UNL     1      98.769  94.932 105.876  1.00  0.00     0.141 C 
ATOM     14  C   UNL     1     100.566  93.522 106.852  1.00  0.00     0.141 C 
ATOM     15  C   UNL     1      98.843  93.975 104.688  1.00  0.00     0.139 C 
ATOM     16  C   UNL     1     101.215  93.747 105.485  1.00  0.00     0.139 C 
ATOM     17  N   UNL     1     100.232  93.599 104.411  1.00  0.00    -0.353 N 
BRANCH  17  18
ATOM     18  C   UNL     1     100.611  93.177 103.138  1.00  0.00     0.129 A 
ATOM     19  N   UNL     1      99.819  93.493 102.088  1.00  0.00    -0.231 NA
ATOM     20  C   UNL     1     101.783  92.455 103.034  1.00  0.00     0.047 A 
ATOM     21  C   UNL     1     100.193  93.082 100.862  1.00  0.00     0.073 A 
ATOM     22  C   UNL     1     102.165  92.033 101.769  1.00  0.00     0.014 A 
ATOM     23  C   UNL     1     101.374  92.339 100.654  1.00  0.00     0.000 A 
ATOM     24  C   UNL     1      99.406  93.386  99.755  1.00  0.00     0.029 A 
ATOM     25  C   UNL     1     101.733  91.925  99.360  1.00  0.00     0.010 A 
ATOM     26  C   UNL     1      99.763  92.975  98.468  1.00  0.00     0.002 A 
ATOM     27  C   UNL     1     100.928  92.243  98.270  1.00  0.00     0.001 A 
ENDBRANCH  17  18
ENDBRANCH   1  10
TORSDOF 3
ENDMDL
MODEL 10
REMARK VINA RESULT:      -6.0     11.515     13.250
REMARK SMILES O=C(/C=C/c1ccccc1Cl)N1CCN(c2ccc3ccccc3n2)CC1
REMARK SMILES IDX 3 1 4 2 5 3 10 4 9 5 6 6 8 7 7 8 11 9 2 10 1 11 12 12 13 13
REMARK SMILES IDX 27 14 14 15 26 16 15 17 16 18 25 19 17 20 24 21 18 22 19 23
REMARK SMILES IDX 23 24 20 25 22 26 21 27
REMARK H PARENT
ROOT
ATOM      1  C   UNL     1     103.112  94.549 113.907  1.00  0.00     0.072 C 
ATOM      2  C   UNL     1     104.283  95.193 113.992  1.00  0.00     0.015 C 
ENDROOT
BRANCH   2   3
ATOM      3  C   UNL     1     105.602  94.566 113.805  1.00  0.00    -0.007 A 
ATOM      4  C   UNL     1     106.218  94.489 112.556  1.00  0.00     0.048 A 
ATOM      5  C   UNL     1     107.469  93.884 112.430  1.00  0.00     0.021 A 
ATOM      6  C   UNL     1     106.238  94.038 114.929  1.00  0.00     0.009 A 
ATOM      7  C   UNL     1     108.104  93.357 113.554  1.00  0.00     0.002 A 
ATOM      8  C   UNL     1     107.489  93.434 114.804  1.00  0.00     0.001 A 
ATOM      9  Cl  UNL     1     105.475  95.126 111.130  1.00  0.00    -0.084 Cl
ENDBRANCH   2   3
BRANCH   1  10
ATOM     10  C   UNL     1     101.869  95.321 114.110  1.00  0.00     0.246 C 
ATOM     11  O   UNL     1     101.602  95.700 115.250  1.00  0.00    -0.270 OA
ATOM     12  N   UNL     1     101.077  95.557 112.987  1.00  0.00    -0.336 N 
ATOM     13  C   UNL     1      99.833  96.308 113.139  1.00  0.00     0.141 C 
ATOM     14  C   UNL     1     101.395  95.105 111.628  1.00  0.00     0.141 C 
ATOM     15  C   UNL     1      98.739  95.780 112.214  1.00  0.00     0.139 C 
ATOM     16  C   UNL     1     100.618  95.857 110.547  1.00  0.00     0.139 C 
ATOM     17  N   UNL     1      99.180  95.817 110.816  1.00  0.00    -0.353 N 
BRANCH  17  18
ATOM     18  C   UNL     1      98.249  95.879 109.782  1.00  0.00     0.129 A 
ATOM     19  N   UNL     1      98.595  95.392 108.568  1.00  0.00    -0.231 NA
ATOM     20  C   UNL     1      97.020  96.441 110.069  1.00  0.00     0.047 A 
ATOM     21  C   UNL     1      97.688  95.454 107.575  1.00  0.00     0.073 A 
ATOM     22  C   UNL     1      96.089  96.504 109.043  1.00  0.00     0.014 A 
ATOM     23  C   UNL     1      96.407  96.010 107.771  1.00  0.00     0.000 A 
ATOM     24  C   UNL     1      98.004  94.964 106.311  1.00  0.00     0.029 A 
ATOM     25  C   UNL     1      95.485  96.061 106.711  1.00  0.00     0.010 A 
ATOM     26  C   UNL     1      97.088  95.014 105.256  1.00  0.00     0.002 A 
ATOM     27  C   UNL     1      95.828  95.563 105.457  1.00  0.00     0.001 A 
ENDBRANCH  17  18
ENDBRANCH   1  10
TORSDOF 3
ENDMDL
MODEL 11
REMARK VINA RESULT:      -6.0     10.219     14.095
REMARK SMILES O=C(/C=C/c1ccccc1Cl)N1CCN(c2ccc3ccccc3n2)CC1
REMARK SMILES IDX 3 1 4 2 5 3 10 4 9 5 6 6 8 7 7 8 11 9 2 10 1 11 12 12 13 13
REMARK SMILES IDX 27 14 14 15 26 16 15 17 16 18 25 19 17 20 24 21 18 22 19 23
REMARK SMILES IDX 23 24 20 25 22 26 21 27
REMARK H PARENT
ROOT
ATOM      1  C   UNL     1      97.773  97.512 114.361  1.00  0.00     0.072 C 
ATOM      2  C   UNL     1      98.058  98.565 115.140  1.00  0.00     0.015 C 
ENDROOT
BRANCH   2   3
ATOM      3  C   UNL     1      97.620  99.946 114.877  1.00  0.00    -0.007 A 
ATOM      4  C   UNL     1      98.157 101.038 115.558  1.00  0.00     0.048 A 
ATOM      5  C   UNL     1      97.708 102.328 115.274  1.00  0.00     0.021 A 
ATOM      6  C   UNL     1      96.632 100.143 113.912  1.00  0.00     0.009 A 
ATOM      7  C   UNL     1      96.721 102.525 114.308  1.00  0.00     0.002 A 
ATOM      8  C   UNL     1      96.182 101.433 113.627  1.00  0.00     0.001 A 
ATOM      9  Cl  UNL     1      99.383 100.851 116.764  1.00  0.00    -0.084 Cl
ENDBRANCH   2   3
BRANCH   1  10
ATOM     10  C   UNL     1      98.277  96.183 114.765  1.00  0.00     0.246 C 
ATOM     11  O   UNL     1      97.589  95.512 115.534  1.00  0.00    -0.270 OA
ATOM     12  N   UNL     1      99.510  95.787 114.250  1.00  0.00    -0.336 N 
ATOM     13  C   UNL     1     100.054  94.485 114.629  1.00  0.00     0.141 C 
ATOM     14  C   UNL     1     100.329  96.587 113.333  1.00  0.00     0.141 C 
ATOM     15  C   UNL     1     101.573  94.530 114.774  1.00  0.00     0.139 C 
ATOM     16  C   UNL     1     101.383  95.762 112.592  1.00  0.00     0.139 C 
ATOM     17  N   UNL     1     102.199  94.994 113.533  1.00  0.00    -0.353 N 
BRANCH  17  18
ATOM     18  C   UNL     1     103.517  94.654 113.235  1.00  0.00     0.129 A 
ATOM     19  N   UNL     1     104.363  94.381 114.255  1.00  0.00    -0.231 NA
ATOM     20  C   UNL     1     103.875  94.618 111.902  1.00  0.00     0.047 A 
ATOM     21  C   UNL     1     105.633  94.051 113.958  1.00  0.00     0.073 A 
ATOM     22  C   UNL     1     105.186  94.279 111.600  1.00  0.00     0.014 A 
ATOM     23  C   UNL     1     106.094  93.989 112.626  1.00  0.00     0.000 A 
ATOM     24  C   UNL     1     106.536  93.763 114.977  1.00  0.00     0.029 A 
ATOM     25  C   UNL     1     107.429  93.642 112.352  1.00  0.00     0.010 A 
ATOM     26  C   UNL     1     107.863  93.419 114.706  1.00  0.00     0.002 A 
ATOM     27  C   UNL     1     108.309  93.358 113.392  1.00  0.00     0.001 A 
ENDBRANCH  17  18
ENDBRANCH   1  10
TORSDOF 3
ENDMDL
MODEL 12
REMARK VINA RESULT:      -6.0     10.581     14.577
REMARK SMILES O=C(/C=C/c1ccccc1Cl)N1CCN(c2ccc3ccccc3n2)CC1
REMARK SMILES IDX 3 1 4 2 5 3 10 4 9 5 6 6 8 7 7 8 11 9 2 10 1 11 12 12 13 13
REMARK SMILES IDX 27 14 14 15 26 16 15 17 16 18 25 19 17 20 24 21 18 22 19 23
REMARK SMILES IDX 23 24 20 25 22 26 21 27
REMARK H PARENT
ROOT
ATOM      1  C   UNL     1     104.288  94.717 116.034  1.00  0.00     0.072 C 
ATOM      2  C   UNL     1     104.311  94.187 114.804  1.00  0.00     0.015 C 
ENDROOT
BRANCH   2   3
ATOM      3  C   UNL     1     105.532  93.941 114.018  1.00  0.00    -0.007 A 
ATOM      4  C   UNL     1     105.536  93.965 112.623  1.00  0.00     0.048 A 
ATOM      5  C   UNL     1     106.719  93.725 111.924  1.00  0.00     0.021 A 
ATOM      6  C   UNL     1     106.712  93.677 114.714  1.00  0.00     0.009 A 
ATOM      7  C   UNL     1     107.899  93.462 112.621  1.00  0.00     0.002 A 
ATOM      8  C   UNL     1     107.895  93.437 114.016  1.00  0.00     0.001 A 
ATOM      9  Cl  UNL     1     104.103  94.287 111.711  1.00  0.00    -0.084 Cl
ENDBRANCH   2   3
BRANCH   1  10
ATOM     10  C   UNL     1     102.980  94.892 116.699  1.00  0.00     0.246 C 
ATOM     11  O   UNL     1     102.388  93.884 117.086  1.00  0.00    -0.270 OA
ATOM     12  N   UNL     1     102.504  96.195 116.833  1.00  0.00    -0.336 N 
ATOM     13  C   UNL     1     101.211  96.417 117.475  1.00  0.00     0.141 C 
ATOM     14  C   UNL     1     103.210  97.395 116.372  1.00  0.00     0.141 C 
ATOM     15  C   UNL     1     100.450  97.572 116.827  1.00  0.00     0.139 C 
ATOM     16  C   UNL     1     102.696  98.681 117.021  1.00  0.00     0.139 C 
ATOM     17  N   UNL     1     101.247  98.802 116.862  1.00  0.00    -0.353 N 
BRANCH  17  18
ATOM     18  C   UNL     1     100.626 100.048 116.813  1.00  0.00     0.129 A 
ATOM     19  N   UNL     1      99.346 100.118 116.381  1.00  0.00    -0.231 NA
ATOM     20  C   UNL     1     101.369 101.141 117.212  1.00  0.00     0.047 A 
ATOM     21  C   UNL     1      98.754 101.326 116.337  1.00  0.00     0.073 A 
ATOM     22  C   UNL     1     100.756 102.385 117.165  1.00  0.00     0.014 A 
ATOM     23  C   UNL     1      99.431 102.502 116.724  1.00  0.00     0.000 A 
ATOM     24  C   UNL     1      97.438 101.442 115.900  1.00  0.00     0.029 A 
ATOM     25  C   UNL     1      98.782 103.747 116.665  1.00  0.00     0.010 A 
ATOM     26  C   UNL     1      96.792 102.680 115.840  1.00  0.00     0.002 A 
ATOM     27  C   UNL     1      97.465 103.834 116.223  1.00  0.00     0.001 A 
ENDBRANCH  17  18
ENDBRANCH   1  10
TORSDOF 3
ENDMDL
MODEL 13
REMARK VINA RESULT:      -5.9     11.502     13.178
REMARK SMILES O=C(/C=C/c1ccccc1Cl)N1CCN(c2ccc3ccccc3n2)CC1
REMARK SMILES IDX 3 1 4 2 5 3 10 4 9 5 6 6 8 7 7 8 11 9 2 10 1 11 12 12 13 13
REMARK SMILES IDX 27 14 14 15 26 16 15 17 16 18 25 19 17 20 24 21 18 22 19 23
REMARK SMILES IDX 23 24 20 25 22 26 21 27
REMARK H PARENT
ROOT
ATOM      1  C   UNL     1     102.997  94.617 113.868  1.00  0.00     0.072 C 
ATOM      2  C   UNL     1     104.128  95.271 113.575  1.00  0.00     0.015 C 
ENDROOT
BRANCH   2   3
ATOM      3  C   UNL     1     105.439  94.631 113.371  1.00  0.00    -0.007 A 
ATOM      4  C   UNL     1     106.267  94.277 114.435  1.00  0.00     0.048 A 
ATOM      5  C   UNL     1     107.500  93.673 114.190  1.00  0.00     0.021 A 
ATOM      6  C   UNL     1     105.845  94.382 112.059  1.00  0.00     0.009 A 
ATOM      7  C   UNL     1     107.905  93.423 112.879  1.00  0.00     0.002 A 
ATOM      8  C   UNL     1     107.077  93.778 111.813  1.00  0.00     0.001 A 
ATOM      9  Cl  UNL     1     105.814  94.564 116.080  1.00  0.00    -0.084 Cl
ENDBRANCH   2   3
BRANCH   1  10
ATOM     10  C   UNL     1     101.755  95.401 114.032  1.00  0.00     0.246 C 
ATOM     11  O   UNL     1     101.476  95.816 115.157  1.00  0.00    -0.270 OA
ATOM     12  N   UNL     1     100.978  95.608 112.893  1.00  0.00    -0.336 N 
ATOM     13  C   UNL     1      99.736  96.369 113.008  1.00  0.00     0.141 C 
ATOM     14  C   UNL     1     101.311  95.115 111.552  1.00  0.00     0.141 C 
ATOM     15  C   UNL     1      98.651  95.819 112.084  1.00  0.00     0.139 C 
ATOM     16  C   UNL     1     100.551  95.837 110.439  1.00  0.00     0.139 C 
ATOM     17  N   UNL     1      99.110  95.813 110.692  1.00  0.00    -0.353 N 
BRANCH  17  18
ATOM     18  C   UNL     1      98.192  95.848 109.645  1.00  0.00     0.129 A 
ATOM     19  N   UNL     1      98.557  95.342 108.445  1.00  0.00    -0.231 NA
ATOM     20  C   UNL     1      96.955  96.405 109.906  1.00  0.00     0.047 A 
ATOM     21  C   UNL     1      97.663  95.379 107.439  1.00  0.00     0.073 A 
ATOM     22  C   UNL     1      96.037  96.443 108.867  1.00  0.00     0.014 A 
ATOM     23  C   UNL     1      96.375  95.929 107.608  1.00  0.00     0.000 A 
ATOM     24  C   UNL     1      97.998  94.869 106.188  1.00  0.00     0.029 A 
ATOM     25  C   UNL     1      95.467  95.952 106.535  1.00  0.00     0.010 A 
ATOM     26  C   UNL     1      97.096  94.892 105.122  1.00  0.00     0.002 A 
ATOM     27  C   UNL     1      95.829  95.434 105.296  1.00  0.00     0.001 A 
ENDBRANCH  17  18
ENDBRANCH   1  10
TORSDOF 3
ENDMDL
MODEL 14
REMARK VINA RESULT:      -5.9     11.899     12.942
REMARK SMILES O=C(/C=C/c1ccccc1Cl)N1CCN(c2ccc3ccccc3n2)CC1
REMARK SMILES IDX 3 1 4 2 5 3 10 4 9 5 6 6 8 7 7 8 11 9 2 10 1 11 12 12 13 13
REMARK SMILES IDX 27 14 14 15 26 16 15 17 16 18 25 19 17 20 24 21 18 22 19 23
REMARK SMILES IDX 23 24 20 25 22 26 21 27
REMARK H PARENT
ROOT
ATOM      1  C   UNL     1      98.335  95.879 111.251  1.00  0.00     0.072 C 
ATOM      2  C   UNL     1      99.043  95.420 112.292  1.00  0.00     0.015 C 
ENDROOT
BRANCH   2   3
ATOM      3  C   UNL     1      99.738  96.268 113.275  1.00  0.00    -0.007 A 
ATOM      4  C   UNL     1     101.128  96.374 113.314  1.00  0.00     0.048 A 
ATOM      5  C   UNL     1     101.739  97.192 114.265  1.00  0.00     0.021 A 
ATOM      6  C   UNL     1      98.959  96.980 114.187  1.00  0.00     0.009 A 
ATOM      7  C   UNL     1     100.959  97.904 115.176  1.00  0.00     0.002 A 
ATOM      8  C   UNL     1      99.569  97.798 115.138  1.00  0.00     0.001 A 
ATOM      9  Cl  UNL     1     102.142  95.515 112.207  1.00  0.00    -0.084 Cl
ENDBRANCH   2   3
BRANCH   1  10
ATOM     10  C   UNL     1      97.684  94.899 110.357  1.00  0.00     0.246 C 
ATOM     11  O   UNL     1      96.680  94.318 110.768  1.00  0.00    -0.270 OA
ATOM     12  N   UNL     1      98.266  94.695 109.107  1.00  0.00    -0.336 N 
ATOM     13  C   UNL     1      97.663  93.728 108.192  1.00  0.00     0.141 C 
ATOM     14  C   UNL     1      99.462  95.388 108.617  1.00  0.00     0.141 C 
ATOM     15  C   UNL     1      98.722  92.984 107.382  1.00  0.00     0.139 C 
ATOM     16  C   UNL     1      99.621  95.313 107.098  1.00  0.00     0.139 C 
ATOM     17  N   UNL     1      99.561  93.926 106.636  1.00  0.00    -0.353 N 
BRANCH  17  18
ATOM     18  C   UNL     1     100.228  93.519 105.482  1.00  0.00     0.129 A 
ATOM     19  N   UNL     1      99.496  93.146 104.408  1.00  0.00    -0.231 NA
ATOM     20  C   UNL     1     101.609  93.524 105.515  1.00  0.00     0.047 A 
ATOM     21  C   UNL     1     100.149  92.756 103.297  1.00  0.00     0.073 A 
ATOM     22  C   UNL     1     102.278  93.121 104.368  1.00  0.00     0.014 A 
ATOM     23  C   UNL     1     101.558  92.727 103.233  1.00  0.00     0.000 A 
ATOM     24  C   UNL     1      99.433  92.365 102.169  1.00  0.00     0.029 A 
ATOM     25  C   UNL     1     102.206  92.313 102.057  1.00  0.00     0.010 A 
ATOM     26  C   UNL     1     100.078  91.953 100.999  1.00  0.00     0.002 A 
ATOM     27  C   UNL     1     101.466  91.927 100.943  1.00  0.00     0.001 A 
ENDBRANCH  17  18
ENDBRANCH   1  10
TORSDOF 3
ENDMDL
MODEL 15
REMARK VINA RESULT:      -5.9     12.245     16.057
REMARK SMILES O=C(/C=C/c1ccccc1Cl)N1CCN(c2ccc3ccccc3n2)CC1
REMARK SMILES IDX 3 1 4 2 5 3 10 4 9 5 6 6 8 7 7 8 11 9 2 10 1 11 12 12 13 13
REMARK SMILES IDX 27 14 14 15 26 16 15 17 16 18 25 19 17 20 24 21 18 22 19 23
REMARK SMILES IDX 23 24 20 25 22 26 21 27
REMARK H PARENT
ROOT
ATOM      1  C   UNL     1      98.927  93.886 106.117  1.00  0.00     0.072 C 
ATOM      2  C   UNL     1      99.677  94.319 105.095  1.00  0.00     0.015 C 
ENDROOT
BRANCH   2   3
ATOM      3  C   UNL     1     100.085  93.494 103.946  1.00  0.00    -0.007 A 
ATOM      4  C   UNL     1     101.385  93.008 103.804  1.00  0.00     0.048 A 
ATOM      5  C   UNL     1     101.723  92.231 102.696  1.00  0.00     0.021 A 
ATOM      6  C   UNL     1      99.123  93.203 102.978  1.00  0.00     0.009 A 
ATOM      7  C   UNL     1     100.760  91.939 101.730  1.00  0.00     0.002 A 
ATOM      8  C   UNL     1      99.460  92.426 101.870  1.00  0.00     0.001 A 
ATOM      9  Cl  UNL     1     102.617  93.338 104.972  1.00  0.00    -0.084 Cl
ENDBRANCH   2   3
BRANCH   1  10
ATOM     10  C   UNL     1      98.590  94.840 107.194  1.00  0.00     0.246 C 
ATOM     11  O   UNL     1      97.708  95.671 106.978  1.00  0.00    -0.270 OA
ATOM     12  N   UNL     1      99.308  94.735 108.385  1.00  0.00    -0.336 N 
ATOM     13  C   UNL     1      99.017  95.663 109.475  1.00  0.00     0.141 C 
ATOM     14  C   UNL     1     100.358  93.744 108.643  1.00  0.00     0.141 C 
ATOM     15  C   UNL     1     100.281  96.045 110.242  1.00  0.00     0.139 C 
ATOM     16  C   UNL     1     100.662  93.563 110.131  1.00  0.00     0.139 C 
ATOM     17  N   UNL     1     100.952  94.850 110.764  1.00  0.00    -0.353 N 
BRANCH  17  18
ATOM     18  C   UNL     1     101.790  94.937 111.873  1.00  0.00     0.129 A 
ATOM     19  N   UNL     1     101.655  95.995 112.706  1.00  0.00    -0.231 NA
ATOM     20  C   UNL     1     102.713  93.925 112.050  1.00  0.00     0.047 A 
ATOM     21  C   UNL     1     102.468  96.070 113.776  1.00  0.00     0.073 A 
ATOM     22  C   UNL     1     103.549  94.007 113.154  1.00  0.00     0.014 A 
ATOM     23  C   UNL     1     103.443  95.085 114.042  1.00  0.00     0.000 A 
ATOM     24  C   UNL     1     102.362  97.141 114.659  1.00  0.00     0.029 A 
ATOM     25  C   UNL     1     104.276  95.196 115.168  1.00  0.00     0.010 A 
ATOM     26  C   UNL     1     103.190  97.253 115.779  1.00  0.00     0.002 A 
ATOM     27  C   UNL     1     104.148  96.279 116.034  1.00  0.00     0.001 A 
ENDBRANCH  17  18
ENDBRANCH   1  10
TORSDOF 3
ENDMDL
