MODEL 1
REMARK VINA RESULT:      -7.8      0.000      0.000
REMARK SMILES Cc1ccc(-c2cc(C(=O)N3CCNC(=O)[C@@H]3c3cccc(F)c3)n[nH]2)o1
REMARK SMILES IDX 10 1 9 2 11 3 17 4 15 5 12 6 16 7 14 8 13 9 18 11 22 12
REMARK SMILES IDX 24 13 21 14 20 15 19 16 23 17 8 18 25 19 7 20 26 21 6 22
REMARK SMILES IDX 5 24 27 25 4 26 2 27 3 28 1 29
REMARK H PARENT 14 10 26 23
ROOT
ATOM      1  O   UNL     1     105.867  97.403 113.725  1.00  0.00    -0.267 OA
ATOM      2  C   UNL     1     105.413  96.500 113.022  1.00  0.00     0.275 C 
ENDROOT
BRANCH   2   3
ATOM      3  N   UNL     1     106.069  95.297 112.713  1.00  0.00    -0.319 N 
ATOM      4  C   UNL     1     107.009  94.586 113.614  1.00  0.00     0.205 C 
ATOM      5  C   UNL     1     107.910  93.531 112.948  1.00  0.00     0.247 C 
ATOM      6  C   UNL     1     105.788  94.672 111.422  1.00  0.00     0.142 C 
ATOM      7  O   UNL     1     108.657  92.814 113.619  1.00  0.00    -0.272 OA
ATOM      8  N   UNL     1     107.871  93.445 111.575  1.00  0.00    -0.352 N 
ATOM      9  C   UNL     1     107.092  94.328 110.741  1.00  0.00     0.137 C 
ATOM     10  H   UNL     1     108.484  92.775 111.122  1.00  0.00     0.163 HD
BRANCH   4  11
ATOM     11  C   UNL     1     106.308  93.975 114.821  1.00  0.00    -0.013 A 
ATOM     12  C   UNL     1     104.510  92.656 115.749  1.00  0.00     0.123 A 
ATOM     13  C   UNL     1     105.152  93.215 114.644  1.00  0.00     0.045 A 
ATOM     14  C   UNL     1     105.022  92.859 117.030  1.00  0.00     0.039 A 
ATOM     15  C   UNL     1     106.177  93.621 117.207  1.00  0.00     0.003 A 
ATOM     16  C   UNL     1     106.821  94.178 116.102  1.00  0.00     0.006 A 
ATOM     17  F   UNL     1     103.399  91.926 115.580  1.00  0.00    -0.207 F 
ENDBRANCH   4  11
ENDBRANCH   2   3
BRANCH   2  18
ATOM     18  C   UNL     1     104.073  96.736 112.466  1.00  0.00     0.150 A 
ATOM     19  N   UNL     1     103.811  97.881 111.830  1.00  0.00    -0.170 NA
ATOM     20  C   UNL     1     102.964  95.873 112.510  1.00  0.00     0.067 A 
ATOM     21  N   UNL     1     102.524  97.742 111.470  1.00  0.00    -0.274 N 
ATOM     22  C   UNL     1     101.970  96.556 111.854  1.00  0.00     0.101 A 
ATOM     23  H   UNL     1     102.085  98.501 110.963  1.00  0.00     0.190 HD
BRANCH  22  24
ATOM     24  C   UNL     1     100.631  96.199 111.578  1.00  0.00     0.152 A 
ATOM     25  O   UNL     1     100.171  96.046 110.308  1.00  0.00    -0.460 OA
ATOM     26  C   UNL     1      99.626  95.961 112.487  1.00  0.00     0.053 A 
ATOM     27  C   UNL     1      98.859  95.706 110.408  1.00  0.00     0.101 A 
ATOM     28  C   UNL     1      98.476  95.640 111.727  1.00  0.00     0.046 A 
ATOM     29  C   UNL     1      98.147  95.486 109.141  1.00  0.00     0.087 C 
ENDBRANCH  22  24
ENDBRANCH   2  18
TORSDOF 4
ENDMDL
MODEL 2
REMARK VINA RESULT:      -7.5      0.655      1.071
REMARK SMILES Cc1ccc(-c2cc(C(=O)N3CCNC(=O)[C@@H]3c3cccc(F)c3)n[nH]2)o1
REMARK SMILES IDX 10 1 9 2 11 3 17 4 15 5 12 6 16 7 14 8 13 9 18 11 22 12
REMARK SMILES IDX 24 13 21 14 20 15 19 16 23 17 8 18 25 19 7 20 26 21 6 22
REMARK SMILES IDX 5 24 27 25 4 26 2 27 3 28 1 29
REMARK H PARENT 14 10 26 23
ROOT
ATOM      1  O   UNL     1     105.761  97.431 113.589  1.00  0.00    -0.267 OA
ATOM      2  C   UNL     1     105.303  96.489 112.941  1.00  0.00     0.275 C 
ENDROOT
BRANCH   2   3
ATOM      3  N   UNL     1     105.980  95.292 112.652  1.00  0.00    -0.319 N 
ATOM      4  C   UNL     1     106.926  94.608 113.568  1.00  0.00     0.205 C 
ATOM      5  C   UNL     1     107.846  93.558 112.920  1.00  0.00     0.247 C 
ATOM      6  C   UNL     1     105.715  94.645 111.369  1.00  0.00     0.142 C 
ATOM      7  O   UNL     1     108.601  92.863 113.605  1.00  0.00    -0.272 OA
ATOM      8  N   UNL     1     107.816  93.453 111.549  1.00  0.00    -0.352 N 
ATOM      9  C   UNL     1     107.027  94.312 110.699  1.00  0.00     0.137 C 
ATOM     10  H   UNL     1     108.442  92.787 111.108  1.00  0.00     0.163 HD
BRANCH   4  11
ATOM     11  C   UNL     1     106.228  94.004 114.779  1.00  0.00    -0.013 A 
ATOM     12  C   UNL     1     104.441  92.677 115.718  1.00  0.00     0.123 A 
ATOM     13  C   UNL     1     105.081  93.230 114.608  1.00  0.00     0.045 A 
ATOM     14  C   UNL     1     104.948  92.898 116.997  1.00  0.00     0.039 A 
ATOM     15  C   UNL     1     106.096  93.674 117.169  1.00  0.00     0.003 A 
ATOM     16  C   UNL     1     106.736  94.225 116.059  1.00  0.00     0.006 A 
ATOM     17  F   UNL     1     103.339  91.933 115.554  1.00  0.00    -0.207 F 
ENDBRANCH   4  11
ENDBRANCH   2   3
BRANCH   2  18
ATOM     18  C   UNL     1     103.937  96.668 112.431  1.00  0.00     0.150 A 
ATOM     19  N   UNL     1     103.605  97.800 111.804  1.00  0.00    -0.170 NA
ATOM     20  C   UNL     1     102.866  95.760 112.516  1.00  0.00     0.067 A 
ATOM     21  N   UNL     1     102.313  97.606 111.490  1.00  0.00    -0.274 N 
ATOM     22  C   UNL     1     101.822  96.399 111.894  1.00  0.00     0.101 A 
ATOM     23  H   UNL     1     101.825  98.345 110.996  1.00  0.00     0.190 HD
BRANCH  22  24
ATOM     24  C   UNL     1     100.490  95.987 111.666  1.00  0.00     0.152 A 
ATOM     25  O   UNL     1      99.677  95.579 112.676  1.00  0.00    -0.460 OA
ATOM     26  C   UNL     1      99.829  95.929 110.461  1.00  0.00     0.053 A 
ATOM     27  C   UNL     1      98.484  95.259 112.109  1.00  0.00     0.101 A 
ATOM     28  C   UNL     1      98.526  95.457 110.749  1.00  0.00     0.046 A 
ATOM     29  C   UNL     1      97.436  94.788 113.025  1.00  0.00     0.087 C 
ENDBRANCH  22  24
ENDBRANCH   2  18
TORSDOF 4
ENDMDL
MODEL 3
REMARK VINA RESULT:      -7.1      2.400      2.801
REMARK SMILES Cc1ccc(-c2cc(C(=O)N3CCNC(=O)[C@@H]3c3cccc(F)c3)n[nH]2)o1
REMARK SMILES IDX 10 1 9 2 11 3 17 4 15 5 12 6 16 7 14 8 13 9 18 11 22 12
REMARK SMILES IDX 24 13 21 14 20 15 19 16 23 17 8 18 25 19 7 20 26 21 6 22
REMARK SMILES IDX 5 24 27 25 4 26 2 27 3 28 1 29
REMARK H PARENT 14 10 26 23
ROOT
ATOM      1  O   UNL     1     106.028  97.944 112.402  1.00  0.00    -0.267 OA
ATOM      2  C   UNL     1     105.444  96.874 112.572  1.00  0.00     0.275 C 
ENDROOT
BRANCH   2   3
ATOM      3  N   UNL     1     106.014  95.599 112.414  1.00  0.00    -0.319 N 
ATOM      4  C   UNL     1     106.823  94.897 113.441  1.00  0.00     0.205 C 
ATOM      5  C   UNL     1     107.674  93.719 112.935  1.00  0.00     0.247 C 
ATOM      6  C   UNL     1     105.772  94.887 111.161  1.00  0.00     0.142 C 
ATOM      7  O   UNL     1     108.307  93.006 113.719  1.00  0.00    -0.272 OA
ATOM      8  N   UNL     1     107.725  93.515 111.576  1.00  0.00    -0.352 N 
ATOM      9  C   UNL     1     107.085  94.381 110.614  1.00  0.00     0.137 C 
ATOM     10  H   UNL     1     108.308  92.761 111.227  1.00  0.00     0.163 HD
BRANCH   4  11
ATOM     11  C   UNL     1     105.988  94.454 114.636  1.00  0.00    -0.013 A 
ATOM     12  C   UNL     1     104.204  93.112 115.558  1.00  0.00     0.123 A 
ATOM     13  C   UNL     1     104.969  93.517 114.465  1.00  0.00     0.045 A 
ATOM     14  C   UNL     1     104.458  93.642 116.822  1.00  0.00     0.039 A 
ATOM     15  C   UNL     1     105.477  94.580 116.993  1.00  0.00     0.003 A 
ATOM     16  C   UNL     1     106.243  94.984 115.900  1.00  0.00     0.006 A 
ATOM     17  F   UNL     1     103.224  92.212 115.394  1.00  0.00    -0.207 F 
ENDBRANCH   4  11
ENDBRANCH   2   3
BRANCH   2  18
ATOM     18  C   UNL     1     104.030  96.971 112.962  1.00  0.00     0.150 A 
ATOM     19  N   UNL     1     103.093  97.135 112.024  1.00  0.00    -0.170 NA
ATOM     20  C   UNL     1     103.495  96.911 114.261  1.00  0.00     0.067 A 
ATOM     21  N   UNL     1     101.955  97.179 112.736  1.00  0.00    -0.274 N 
ATOM     22  C   UNL     1     102.140  97.050 114.081  1.00  0.00     0.101 A 
ATOM     23  H   UNL     1     101.082  97.302 112.235  1.00  0.00     0.190 HD
BRANCH  22  24
ATOM     24  C   UNL     1     101.081  97.066 115.017  1.00  0.00     0.152 A 
ATOM     25  O   UNL     1     100.767  95.980 115.771  1.00  0.00    -0.460 OA
ATOM     26  C   UNL     1     100.240  98.115 115.306  1.00  0.00     0.053 A 
ATOM     27  C   UNL     1      99.714  96.341 116.551  1.00  0.00     0.101 A 
ATOM     28  C   UNL     1      99.352  97.644 116.303  1.00  0.00     0.046 A 
ATOM     29  C   UNL     1      99.199  95.310 117.463  1.00  0.00     0.087 C 
ENDBRANCH  22  24
ENDBRANCH   2  18
TORSDOF 4
ENDMDL
MODEL 4
REMARK VINA RESULT:      -6.8      3.507      5.274
REMARK SMILES Cc1ccc(-c2cc(C(=O)N3CCNC(=O)[C@@H]3c3cccc(F)c3)n[nH]2)o1
REMARK SMILES IDX 10 1 9 2 11 3 17 4 15 5 12 6 16 7 14 8 13 9 18 11 22 12
REMARK SMILES IDX 24 13 21 14 20 15 19 16 23 17 8 18 25 19 7 20 26 21 6 22
REMARK SMILES IDX 5 24 27 25 4 26 2 27 3 28 1 29
REMARK H PARENT 14 10 26 23
ROOT
ATOM      1  O   UNL     1     104.935  92.610 115.484  1.00  0.00    -0.267 OA
ATOM      2  C   UNL     1     105.429  93.689 115.155  1.00  0.00     0.275 C 
ENDROOT
BRANCH   2   3
ATOM      3  N   UNL     1     106.381  93.874 114.138  1.00  0.00    -0.319 N 
ATOM      4  C   UNL     1     106.062  94.099 112.706  1.00  0.00     0.205 C 
ATOM      5  C   UNL     1     107.220  93.877 111.718  1.00  0.00     0.247 C 
ATOM      6  C   UNL     1     107.793  93.881 114.511  1.00  0.00     0.142 C 
ATOM      7  O   UNL     1     107.092  94.130 110.517  1.00  0.00    -0.272 OA
ATOM      8  N   UNL     1     108.389  93.356 112.222  1.00  0.00    -0.352 N 
ATOM      9  C   UNL     1     108.554  92.949 113.597  1.00  0.00     0.137 C 
ATOM     10  H   UNL     1     109.150  93.175 111.575  1.00  0.00     0.163 HD
BRANCH   4  11
ATOM     11  C   UNL     1     105.428  95.462 112.459  1.00  0.00    -0.013 A 
ATOM     12  C   UNL     1     103.477  96.808 111.994  1.00  0.00     0.123 A 
ATOM     13  C   UNL     1     104.058  95.560 112.221  1.00  0.00     0.045 A 
ATOM     14  C   UNL     1     104.267  97.957 112.005  1.00  0.00     0.039 A 
ATOM     15  C   UNL     1     105.638  97.859 112.241  1.00  0.00     0.003 A 
ATOM     16  C   UNL     1     106.219  96.611 112.470  1.00  0.00     0.006 A 
ATOM     17  F   UNL     1     102.160  96.903 111.766  1.00  0.00    -0.207 F 
ENDBRANCH   4  11
ENDBRANCH   2   3
BRANCH   2  18
ATOM     18  C   UNL     1     104.972  94.860 115.915  1.00  0.00     0.150 A 
ATOM     19  N   UNL     1     105.546  95.158 117.084  1.00  0.00    -0.170 NA
ATOM     20  C   UNL     1     103.954  95.765 115.563  1.00  0.00     0.067 A 
ATOM     21  N   UNL     1     104.886  96.261 117.475  1.00  0.00    -0.274 N 
ATOM     22  C   UNL     1     103.922  96.666 116.599  1.00  0.00     0.101 A 
ATOM     23  H   UNL     1     105.148  96.687 118.356  1.00  0.00     0.190 HD
BRANCH  22  24
ATOM     24  C   UNL     1     103.109  97.803 116.810  1.00  0.00     0.152 A 
ATOM     25  O   UNL     1     101.833  97.874 116.348  1.00  0.00    -0.460 OA
ATOM     26  C   UNL     1     103.447  98.958 117.475  1.00  0.00     0.053 A 
ATOM     27  C   UNL     1     101.351  99.087 116.723  1.00  0.00     0.101 A 
ATOM     28  C   UNL     1     102.305  99.792 117.419  1.00  0.00     0.046 A 
ATOM     29  C   UNL     1      99.968  99.387 116.328  1.00  0.00     0.087 C 
ENDBRANCH  22  24
ENDBRANCH   2  18
TORSDOF 4
ENDMDL
MODEL 5
REMARK VINA RESULT:      -6.6      4.306      5.752
REMARK SMILES Cc1ccc(-c2cc(C(=O)N3CCNC(=O)[C@@H]3c3cccc(F)c3)n[nH]2)o1
REMARK SMILES IDX 10 1 9 2 11 3 17 4 15 5 12 6 16 7 14 8 13 9 18 11 22 12
REMARK SMILES IDX 24 13 21 14 20 15 19 16 23 17 8 18 25 19 7 20 26 21 6 22
REMARK SMILES IDX 5 24 27 25 4 26 2 27 3 28 1 29
REMARK H PARENT 14 10 26 23
ROOT
ATOM      1  O   UNL     1     102.579  94.087 116.856  1.00  0.00    -0.267 OA
ATOM      2  C   UNL     1     103.517  94.691 116.334  1.00  0.00     0.275 C 
ENDROOT
BRANCH   2   3
ATOM      3  N   UNL     1     104.529  94.108 115.554  1.00  0.00    -0.319 N 
ATOM      4  C   UNL     1     104.528  94.041 114.072  1.00  0.00     0.205 C 
ATOM      5  C   UNL     1     105.502  93.028 113.445  1.00  0.00     0.247 C 
ATOM      6  C   UNL     1     105.692  93.551 116.241  1.00  0.00     0.142 C 
ATOM      7  O   UNL     1     105.653  92.960 112.222  1.00  0.00    -0.272 OA
ATOM      8  N   UNL     1     106.171  92.183 114.300  1.00  0.00    -0.352 N 
ATOM      9  C   UNL     1     105.954  92.155 115.726  1.00  0.00     0.137 C 
ATOM     10  H   UNL     1     106.792  91.489 113.897  1.00  0.00     0.163 HD
BRANCH   4  11
ATOM     11  C   UNL     1     104.721  95.407 113.428  1.00  0.00    -0.013 A 
ATOM     12  C   UNL     1     103.818  97.306 112.238  1.00  0.00     0.123 A 
ATOM     13  C   UNL     1     103.641  96.054 112.828  1.00  0.00     0.045 A 
ATOM     14  C   UNL     1     105.074  97.910 112.247  1.00  0.00     0.039 A 
ATOM     15  C   UNL     1     106.155  97.263 112.847  1.00  0.00     0.003 A 
ATOM     16  C   UNL     1     105.978  96.012 113.438  1.00  0.00     0.006 A 
ATOM     17  F   UNL     1     102.780  97.927 111.661  1.00  0.00    -0.207 F 
ENDBRANCH   4  11
ENDBRANCH   2   3
BRANCH   2  18
ATOM     18  C   UNL     1     103.558  96.140 116.575  1.00  0.00     0.150 A 
ATOM     19  N   UNL     1     104.731  96.747 116.773  1.00  0.00    -0.170 NA
ATOM     20  C   UNL     1     102.470  97.030 116.628  1.00  0.00     0.067 A 
ATOM     21  N   UNL     1     104.383  98.031 116.953  1.00  0.00    -0.274 N 
ATOM     22  C   UNL     1     103.039  98.255 116.876  1.00  0.00     0.101 A 
ATOM     23  H   UNL     1     105.119  98.706 117.127  1.00  0.00     0.190 HD
BRANCH  22  24
ATOM     24  C   UNL     1     102.454  99.531 117.033  1.00  0.00     0.152 A 
ATOM     25  O   UNL     1     101.132  99.753 116.804  1.00  0.00    -0.460 OA
ATOM     26  C   UNL     1     103.078 100.694 117.419  1.00  0.00     0.053 A 
ATOM     27  C   UNL     1     100.912 101.071 117.047  1.00  0.00     0.101 A 
ATOM     28  C   UNL     1     102.077 101.694 117.429  1.00  0.00     0.046 A 
ATOM     29  C   UNL     1      99.532 101.543 116.862  1.00  0.00     0.087 C 
ENDBRANCH  22  24
ENDBRANCH   2  18
TORSDOF 4
ENDMDL
MODEL 6
REMARK VINA RESULT:      -6.6      2.348      3.072
REMARK SMILES Cc1ccc(-c2cc(C(=O)N3CCNC(=O)[C@@H]3c3cccc(F)c3)n[nH]2)o1
REMARK SMILES IDX 10 1 9 2 11 3 17 4 15 5 12 6 16 7 14 8 13 9 18 11 22 12
REMARK SMILES IDX 24 13 21 14 20 15 19 16 23 17 8 18 25 19 7 20 26 21 6 22
REMARK SMILES IDX 5 24 27 25 4 26 2 27 3 28 1 29
REMARK H PARENT 14 10 26 23
ROOT
ATOM      1  O   UNL     1     104.179  91.925 112.976  1.00  0.00    -0.267 OA
ATOM      2  C   UNL     1     104.090  93.134 112.759  1.00  0.00     0.275 C 
ENDROOT
BRANCH   2   3
ATOM      3  N   UNL     1     105.171  94.015 112.596  1.00  0.00    -0.319 N 
ATOM      4  C   UNL     1     105.241  95.388 113.158  1.00  0.00     0.205 C 
ATOM      5  C   UNL     1     106.304  96.313 112.539  1.00  0.00     0.247 C 
ATOM      6  C   UNL     1     106.335  93.546 111.847  1.00  0.00     0.142 C 
ATOM      7  O   UNL     1     106.514  97.439 112.996  1.00  0.00    -0.272 OA
ATOM      8  N   UNL     1     106.985  95.844 111.439  1.00  0.00    -0.352 N 
ATOM      9  C   UNL     1     106.706  94.577 110.807  1.00  0.00     0.137 C 
ATOM     10  H   UNL     1     107.666  96.457 111.003  1.00  0.00     0.163 HD
BRANCH   4  11
ATOM     11  C   UNL     1     105.377  95.389 114.674  1.00  0.00    -0.013 A 
ATOM     12  C   UNL     1     106.456  94.580 116.679  1.00  0.00     0.123 A 
ATOM     13  C   UNL     1     106.331  94.579 115.289  1.00  0.00     0.045 A 
ATOM     14  C   UNL     1     105.626  95.389 117.452  1.00  0.00     0.039 A 
ATOM     15  C   UNL     1     104.670  96.199 116.838  1.00  0.00     0.003 A 
ATOM     16  C   UNL     1     104.547  96.200 115.448  1.00  0.00     0.006 A 
ATOM     17  F   UNL     1     107.372  93.801 117.269  1.00  0.00    -0.207 F 
ENDBRANCH   4  11
ENDBRANCH   2   3
BRANCH   2  18
ATOM     18  C   UNL     1     102.724  93.670 112.680  1.00  0.00     0.150 A 
ATOM     19  N   UNL     1     101.951  93.680 113.769  1.00  0.00    -0.170 NA
ATOM     20  C   UNL     1     102.080  94.207 111.551  1.00  0.00     0.067 A 
ATOM     21  N   UNL     1     100.807  94.227 113.325  1.00  0.00    -0.274 N 
ATOM     22  C   UNL     1     100.832  94.562 112.003  1.00  0.00     0.101 A 
ATOM     23  H   UNL     1     100.046  94.343 113.984  1.00  0.00     0.190 HD
BRANCH  22  24
ATOM     24  C   UNL     1      99.739  95.152 111.330  1.00  0.00     0.152 A 
ATOM     25  O   UNL     1      98.579  95.461 111.968  1.00  0.00    -0.460 OA
ATOM     26  C   UNL     1      99.664  95.494 110.000  1.00  0.00     0.053 A 
ATOM     27  C   UNL     1      97.756  96.007 111.035  1.00  0.00     0.101 A 
ATOM     28  C   UNL     1      98.376  96.049 109.808  1.00  0.00     0.046 A 
ATOM     29  C   UNL     1      96.428  96.423 111.506  1.00  0.00     0.087 C 
ENDBRANCH  22  24
ENDBRANCH   2  18
TORSDOF 4
ENDMDL
MODEL 7
REMARK VINA RESULT:      -6.6      3.236      4.470
REMARK SMILES Cc1ccc(-c2cc(C(=O)N3CCNC(=O)[C@@H]3c3cccc(F)c3)n[nH]2)o1
REMARK SMILES IDX 10 1 9 2 11 3 17 4 15 5 12 6 16 7 14 8 13 9 18 11 22 12
REMARK SMILES IDX 24 13 21 14 20 15 19 16 23 17 8 18 25 19 7 20 26 21 6 22
REMARK SMILES IDX 5 24 27 25 4 26 2 27 3 28 1 29
REMARK H PARENT 14 10 26 23
ROOT
ATOM      1  O   UNL     1     101.751  95.144 115.410  1.00  0.00    -0.267 OA
ATOM      2  C   UNL     1     102.443  94.274 114.881  1.00  0.00     0.275 C 
ENDROOT
BRANCH   2   3
ATOM      3  N   UNL     1     103.735  93.900 115.287  1.00  0.00    -0.319 N 
ATOM      4  C   UNL     1     104.849  93.554 114.369  1.00  0.00     0.205 C 
ATOM      5  C   UNL     1     106.030  92.798 115.001  1.00  0.00     0.247 C 
ATOM      6  C   UNL     1     104.026  93.876 116.719  1.00  0.00     0.142 C 
ATOM      7  O   UNL     1     107.049  92.548 114.352  1.00  0.00    -0.272 OA
ATOM      8  N   UNL     1     105.889  92.384 116.305  1.00  0.00    -0.352 N 
ATOM      9  C   UNL     1     104.680  92.561 117.073  1.00  0.00     0.137 C 
ATOM     10  H   UNL     1     106.648  91.855 116.724  1.00  0.00     0.163 HD
BRANCH   4  11
ATOM     11  C   UNL     1     105.364  94.764 113.600  1.00  0.00    -0.013 A 
ATOM     12  C   UNL     1     106.092  95.772 111.529  1.00  0.00     0.123 A 
ATOM     13  C   UNL     1     105.619  94.664 112.233  1.00  0.00     0.045 A 
ATOM     14  C   UNL     1     106.311  96.978 112.192  1.00  0.00     0.039 A 
ATOM     15  C   UNL     1     106.057  97.078 113.561  1.00  0.00     0.003 A 
ATOM     16  C   UNL     1     105.583  95.971 114.264  1.00  0.00     0.006 A 
ATOM     17  F   UNL     1     106.336  95.676 110.215  1.00  0.00    -0.207 F 
ENDBRANCH   4  11
ENDBRANCH   2   3
BRANCH   2  18
ATOM     18  C   UNL     1     101.844  93.596 113.723  1.00  0.00     0.150 A 
ATOM     19  N   UNL     1     101.464  92.320 113.825  1.00  0.00    -0.170 NA
ATOM     20  C   UNL     1     101.601  94.136 112.447  1.00  0.00     0.067 A 
ATOM     21  N   UNL     1     100.975  92.049 112.603  1.00  0.00    -0.274 N 
ATOM     22  C   UNL     1     101.034  93.104 111.740  1.00  0.00     0.101 A 
ATOM     23  H   UNL     1     100.617  91.118 112.427  1.00  0.00     0.190 HD
BRANCH  22  24
ATOM     24  C   UNL     1     100.574  93.042 110.405  1.00  0.00     0.152 A 
ATOM     25  O   UNL     1     100.483  94.148 109.620  1.00  0.00    -0.460 OA
ATOM     26  C   UNL     1     100.164  91.925 109.715  1.00  0.00     0.053 A 
ATOM     27  C   UNL     1     100.011  93.732 108.416  1.00  0.00     0.101 A 
ATOM     28  C   UNL     1      99.799  92.373 108.423  1.00  0.00     0.046 A 
ATOM     29  C   UNL     1      99.832  94.772 107.394  1.00  0.00     0.087 C 
ENDBRANCH  22  24
ENDBRANCH   2  18
TORSDOF 4
ENDMDL
MODEL 8
REMARK VINA RESULT:      -6.5      3.316      4.771
REMARK SMILES Cc1ccc(-c2cc(C(=O)N3CCNC(=O)[C@@H]3c3cccc(F)c3)n[nH]2)o1
REMARK SMILES IDX 10 1 9 2 11 3 17 4 15 5 12 6 16 7 14 8 13 9 18 11 22 12
REMARK SMILES IDX 24 13 21 14 20 15 19 16 23 17 8 18 25 19 7 20 26 21 6 22
REMARK SMILES IDX 5 24 27 25 4 26 2 27 3 28 1 29
REMARK H PARENT 14 10 26 23
ROOT
ATOM      1  O   UNL     1     101.094  95.153 114.242  1.00  0.00    -0.267 OA
ATOM      2  C   UNL     1     101.770  94.186 113.890  1.00  0.00     0.275 C 
ENDROOT
BRANCH   2   3
ATOM      3  N   UNL     1     102.901  93.694 114.563  1.00  0.00    -0.319 N 
ATOM      4  C   UNL     1     104.123  93.172 113.901  1.00  0.00     0.205 C 
ATOM      5  C   UNL     1     105.056  92.326 114.786  1.00  0.00     0.247 C 
ATOM      6  C   UNL     1     102.900  93.724 116.024  1.00  0.00     0.142 C 
ATOM      7  O   UNL     1     106.144  91.925 114.365  1.00  0.00    -0.272 OA
ATOM      8  N   UNL     1     104.612  92.009 116.048  1.00  0.00    -0.352 N 
ATOM      9  C   UNL     1     103.306  92.367 116.549  1.00  0.00     0.137 C 
ATOM     10  H   UNL     1     105.204  91.425 116.630  1.00  0.00     0.163 HD
BRANCH   4  11
ATOM     11  C   UNL     1     104.923  94.268 113.210  1.00  0.00    -0.013 A 
ATOM     12  C   UNL     1     106.080  96.387 113.299  1.00  0.00     0.123 A 
ATOM     13  C   UNL     1     105.347  95.383 113.932  1.00  0.00     0.045 A 
ATOM     14  C   UNL     1     106.387  96.276 111.944  1.00  0.00     0.039 A 
ATOM     15  C   UNL     1     105.963  95.162 111.220  1.00  0.00     0.003 A 
ATOM     16  C   UNL     1     105.232  94.157 111.854  1.00  0.00     0.006 A 
ATOM     17  F   UNL     1     106.486  97.458 113.993  1.00  0.00    -0.207 F 
ENDBRANCH   4  11
ENDBRANCH   2   3
BRANCH   2  18
ATOM     18  C   UNL     1     101.339  93.520 112.654  1.00  0.00     0.150 A 
ATOM     19  N   UNL     1     101.093  92.206 112.659  1.00  0.00    -0.170 NA
ATOM     20  C   UNL     1     101.135  94.105 111.392  1.00  0.00     0.067 A 
ATOM     21  N   UNL     1     100.732  91.959 111.390  1.00  0.00    -0.274 N 
ATOM     22  C   UNL     1     100.740  93.063 110.589  1.00  0.00     0.101 A 
ATOM     23  H   UNL     1     100.492  91.007 111.138  1.00  0.00     0.190 HD
BRANCH  22  24
ATOM     24  C   UNL     1     100.392  93.033 109.220  1.00  0.00     0.152 A 
ATOM     25  O   UNL     1     100.101  94.163 108.523  1.00  0.00    -0.460 OA
ATOM     26  C   UNL     1     100.294  91.927 108.409  1.00  0.00     0.053 A 
ATOM     27  C   UNL     1      99.815  93.773 107.253  1.00  0.00     0.101 A 
ATOM     28  C   UNL     1      99.920  92.407 107.131  1.00  0.00     0.046 A 
ATOM     29  C   UNL     1      99.469  94.844 106.308  1.00  0.00     0.087 C 
ENDBRANCH  22  24
ENDBRANCH   2  18
TORSDOF 4
ENDMDL
MODEL 9
REMARK VINA RESULT:      -6.5      1.676      1.832
REMARK SMILES Cc1ccc(-c2cc(C(=O)N3CCNC(=O)[C@@H]3c3cccc(F)c3)n[nH]2)o1
REMARK SMILES IDX 10 1 9 2 11 3 17 4 15 5 12 6 16 7 14 8 13 9 18 11 22 12
REMARK SMILES IDX 24 13 21 14 20 15 19 16 23 17 8 18 25 19 7 20 26 21 6 22
REMARK SMILES IDX 5 24 27 25 4 26 2 27 3 28 1 29
REMARK H PARENT 14 10 26 23
ROOT
ATOM      1  O   UNL     1     106.658  97.256 112.171  1.00  0.00    -0.267 OA
ATOM      2  C   UNL     1     105.851  96.391 112.512  1.00  0.00     0.275 C 
ENDROOT
BRANCH   2   3
ATOM      3  N   UNL     1     106.172  95.180 113.147  1.00  0.00    -0.319 N 
ATOM      4  C   UNL     1     106.194  94.968 114.616  1.00  0.00     0.205 C 
ATOM      5  C   UNL     1     106.947  93.718 115.103  1.00  0.00     0.247 C 
ATOM      6  C   UNL     1     106.480  94.024 112.307  1.00  0.00     0.142 C 
ATOM      7  O   UNL     1     106.944  93.395 116.294  1.00  0.00    -0.272 OA
ATOM      8  N   UNL     1     107.649  92.998 114.164  1.00  0.00    -0.352 N 
ATOM      9  C   UNL     1     107.767  93.392 112.781  1.00  0.00     0.137 C 
ATOM     10  H   UNL     1     108.176  92.190 114.478  1.00  0.00     0.163 HD
BRANCH   4  11
ATOM     11  C   UNL     1     104.799  95.000 115.227  1.00  0.00    -0.013 A 
ATOM     12  C   UNL     1     102.662  93.944 115.620  1.00  0.00     0.123 A 
ATOM     13  C   UNL     1     103.939  93.915 115.060  1.00  0.00     0.045 A 
ATOM     14  C   UNL     1     102.245  95.059 116.346  1.00  0.00     0.039 A 
ATOM     15  C   UNL     1     103.104  96.145 116.513  1.00  0.00     0.003 A 
ATOM     16  C   UNL     1     104.382  96.115 115.955  1.00  0.00     0.006 A 
ATOM     17  F   UNL     1     101.836  92.902 115.458  1.00  0.00    -0.207 F 
ENDBRANCH   4  11
ENDBRANCH   2   3
BRANCH   2  18
ATOM     18  C   UNL     1     104.442  96.676 112.207  1.00  0.00     0.150 A 
ATOM     19  N   UNL     1     104.078  97.907 111.838  1.00  0.00    -0.170 NA
ATOM     20  C   UNL     1     103.359  95.779 112.251  1.00  0.00     0.067 A 
ATOM     21  N   UNL     1     102.754  97.788 111.647  1.00  0.00    -0.274 N 
ATOM     22  C   UNL     1     102.273  96.534 111.881  1.00  0.00     0.101 A 
ATOM     23  H   UNL     1     102.238  98.611 111.356  1.00  0.00     0.190 HD
BRANCH  22  24
ATOM     24  C   UNL     1     100.911  96.185 111.739  1.00  0.00     0.152 A 
ATOM     25  O   UNL     1     100.303  96.128 110.524  1.00  0.00    -0.460 OA
ATOM     26  C   UNL     1     100.023  95.864 112.739  1.00  0.00     0.053 A 
ATOM     27  C   UNL     1      99.013  95.766 110.753  1.00  0.00     0.101 A 
ATOM     28  C   UNL     1      98.791  95.592 112.099  1.00  0.00     0.046 A 
ATOM     29  C   UNL     1      98.155  95.639 109.567  1.00  0.00     0.087 C 
ENDBRANCH  22  24
ENDBRANCH   2  18
TORSDOF 4
ENDMDL
MODEL 10
REMARK VINA RESULT:      -6.5      1.942      2.213
REMARK SMILES Cc1ccc(-c2cc(C(=O)N3CCNC(=O)[C@@H]3c3cccc(F)c3)n[nH]2)o1
REMARK SMILES IDX 10 1 9 2 11 3 17 4 15 5 12 6 16 7 14 8 13 9 18 11 22 12
REMARK SMILES IDX 24 13 21 14 20 15 19 16 23 17 8 18 25 19 7 20 26 21 6 22
REMARK SMILES IDX 5 24 27 25 4 26 2 27 3 28 1 29
REMARK H PARENT 14 10 26 23
ROOT
ATOM      1  O   UNL     1     106.622  97.236 112.140  1.00  0.00    -0.267 OA
ATOM      2  C   UNL     1     105.825  96.366 112.493  1.00  0.00     0.275 C 
ENDROOT
BRANCH   2   3
ATOM      3  N   UNL     1     106.163  95.159 113.126  1.00  0.00    -0.319 N 
ATOM      4  C   UNL     1     106.219  94.956 114.596  1.00  0.00     0.205 C 
ATOM      5  C   UNL     1     106.986  93.710 115.073  1.00  0.00     0.247 C 
ATOM      6  C   UNL     1     106.452  93.998 112.287  1.00  0.00     0.142 C 
ATOM      7  O   UNL     1     107.011  93.394 116.265  1.00  0.00    -0.272 OA
ATOM      8  N   UNL     1     107.666  92.985 114.122  1.00  0.00    -0.352 N 
ATOM      9  C   UNL     1     107.751  93.371 112.734  1.00  0.00     0.137 C 
ATOM     10  H   UNL     1     108.202  92.180 114.428  1.00  0.00     0.163 HD
BRANCH   4  11
ATOM     11  C   UNL     1     104.840  94.990 115.240  1.00  0.00    -0.013 A 
ATOM     12  C   UNL     1     103.180  96.136 116.569  1.00  0.00     0.123 A 
ATOM     13  C   UNL     1     104.443  96.105 115.979  1.00  0.00     0.045 A 
ATOM     14  C   UNL     1     102.314  95.053 116.422  1.00  0.00     0.039 A 
ATOM     15  C   UNL     1     102.711  93.937 115.684  1.00  0.00     0.003 A 
ATOM     16  C   UNL     1     103.974  93.907 115.092  1.00  0.00     0.006 A 
ATOM     17  F   UNL     1     102.798  97.207 117.279  1.00  0.00    -0.207 F 
ENDBRANCH   4  11
ENDBRANCH   2   3
BRANCH   2  18
ATOM     18  C   UNL     1     104.411  96.639 112.203  1.00  0.00     0.150 A 
ATOM     19  N   UNL     1     104.027  97.876 111.875  1.00  0.00    -0.170 NA
ATOM     20  C   UNL     1     103.342  95.726 112.224  1.00  0.00     0.067 A 
ATOM     21  N   UNL     1     102.704  97.744 111.687  1.00  0.00    -0.274 N 
ATOM     22  C   UNL     1     102.242  96.476 111.884  1.00  0.00     0.101 A 
ATOM     23  H   UNL     1     102.174  98.568 111.424  1.00  0.00     0.190 HD
BRANCH  22  24
ATOM     24  C   UNL     1     100.885  96.112 111.738  1.00  0.00     0.152 A 
ATOM     25  O   UNL     1     100.248  96.164 110.538  1.00  0.00    -0.460 OA
ATOM     26  C   UNL     1     100.029  95.671 112.720  1.00  0.00     0.053 A 
ATOM     27  C   UNL     1      98.972  95.751 110.757  1.00  0.00     0.101 A 
ATOM     28  C   UNL     1      98.787  95.436 112.083  1.00  0.00     0.046 A 
ATOM     29  C   UNL     1      98.088  95.724 109.584  1.00  0.00     0.087 C 
ENDBRANCH  22  24
ENDBRANCH   2  18
TORSDOF 4
ENDMDL
MODEL 11
REMARK VINA RESULT:      -6.4      2.576      4.185
REMARK SMILES Cc1ccc(-c2cc(C(=O)N3CCNC(=O)[C@@H]3c3cccc(F)c3)n[nH]2)o1
REMARK SMILES IDX 10 1 9 2 11 3 17 4 15 5 12 6 16 7 14 8 13 9 18 11 22 12
REMARK SMILES IDX 24 13 21 14 20 15 19 16 23 17 8 18 25 19 7 20 26 21 6 22
REMARK SMILES IDX 5 24 27 25 4 26 2 27 3 28 1 29
REMARK H PARENT 14 10 26 23
ROOT
ATOM      1  O   UNL     1     102.511  91.931 113.062  1.00  0.00    -0.267 OA
ATOM      2  C   UNL     1     102.721  93.128 113.259  1.00  0.00     0.275 C 
ENDROOT
BRANCH   2   3
ATOM      3  N   UNL     1     103.612  93.655 114.209  1.00  0.00    -0.319 N 
ATOM      4  C   UNL     1     105.092  93.580 114.121  1.00  0.00     0.205 C 
ATOM      5  C   UNL     1     105.857  93.850 115.428  1.00  0.00     0.247 C 
ATOM      6  C   UNL     1     103.053  94.360 115.360  1.00  0.00     0.142 C 
ATOM      7  O   UNL     1     107.089  93.909 115.446  1.00  0.00    -0.272 OA
ATOM      8  N   UNL     1     105.114  93.988 116.577  1.00  0.00    -0.352 N 
ATOM      9  C   UNL     1     103.681  93.826 116.626  1.00  0.00     0.137 C 
ATOM     10  H   UNL     1     105.609  94.134 117.451  1.00  0.00     0.163 HD
BRANCH   4  11
ATOM     11  C   UNL     1     105.652  94.453 113.006  1.00  0.00    -0.013 A 
ATOM     12  C   UNL     1     106.222  96.638 112.147  1.00  0.00     0.123 A 
ATOM     13  C   UNL     1     105.709  95.838 113.168  1.00  0.00     0.045 A 
ATOM     14  C   UNL     1     106.677  96.055 110.966  1.00  0.00     0.039 A 
ATOM     15  C   UNL     1     106.619  94.671 110.803  1.00  0.00     0.003 A 
ATOM     16  C   UNL     1     106.108  93.870 111.824  1.00  0.00     0.006 A 
ATOM     17  F   UNL     1     106.277  97.968 112.302  1.00  0.00    -0.207 F 
ENDBRANCH   4  11
ENDBRANCH   2   3
BRANCH   2  18
ATOM     18  C   UNL     1     101.952  94.058 112.422  1.00  0.00     0.150 A 
ATOM     19  N   UNL     1     102.466  95.252 112.111  1.00  0.00    -0.170 NA
ATOM     20  C   UNL     1     100.676  93.855 111.867  1.00  0.00     0.067 A 
ATOM     21  N   UNL     1     101.506  95.809 111.354  1.00  0.00    -0.274 N 
ATOM     22  C   UNL     1     100.412  95.014 111.178  1.00  0.00     0.101 A 
ATOM     23  H   UNL     1     101.666  96.741 110.990  1.00  0.00     0.190 HD
BRANCH  22  24
ATOM     24  C   UNL     1      99.286  95.400 110.416  1.00  0.00     0.152 A 
ATOM     25  O   UNL     1      99.202  95.162 109.080  1.00  0.00    -0.460 OA
ATOM     26  C   UNL     1      98.156  96.041 110.865  1.00  0.00     0.053 A 
ATOM     27  C   UNL     1      98.004  95.656 108.673  1.00  0.00     0.101 A 
ATOM     28  C   UNL     1      97.322  96.207 109.733  1.00  0.00     0.046 A 
ATOM     29  C   UNL     1      97.692  95.507 107.245  1.00  0.00     0.087 C 
ENDBRANCH  22  24
ENDBRANCH   2  18
TORSDOF 4
ENDMDL
MODEL 12
REMARK VINA RESULT:      -6.4      2.534      3.456
REMARK SMILES Cc1ccc(-c2cc(C(=O)N3CCNC(=O)[C@@H]3c3cccc(F)c3)n[nH]2)o1
REMARK SMILES IDX 10 1 9 2 11 3 17 4 15 5 12 6 16 7 14 8 13 9 18 11 22 12
REMARK SMILES IDX 24 13 21 14 20 15 19 16 23 17 8 18 25 19 7 20 26 21 6 22
REMARK SMILES IDX 5 24 27 25 4 26 2 27 3 28 1 29
REMARK H PARENT 14 10 26 23
ROOT
ATOM      1  O   UNL     1     103.798  92.317 112.929  1.00  0.00    -0.267 OA
ATOM      2  C   UNL     1     103.683  93.508 112.643  1.00  0.00     0.275 C 
ENDROOT
BRANCH   2   3
ATOM      3  N   UNL     1     104.745  94.409 112.455  1.00  0.00    -0.319 N 
ATOM      4  C   UNL     1     104.640  95.885 112.576  1.00  0.00     0.205 C 
ATOM      5  C   UNL     1     105.790  96.693 111.949  1.00  0.00     0.247 C 
ATOM      6  C   UNL     1     106.065  93.862 112.150  1.00  0.00     0.142 C 
ATOM      7  O   UNL     1     105.852  97.918 112.076  1.00  0.00    -0.272 OA
ATOM      8  N   UNL     1     106.723  95.998 111.215  1.00  0.00    -0.352 N 
ATOM      9  C   UNL     1     106.638  94.581 110.951  1.00  0.00     0.137 C 
ATOM     10  H   UNL     1     107.468  96.523 110.769  1.00  0.00     0.163 HD
BRANCH   4  11
ATOM     11  C   UNL     1     104.418  96.336 114.013  1.00  0.00    -0.013 A 
ATOM     12  C   UNL     1     105.141  96.413 116.317  1.00  0.00     0.123 A 
ATOM     13  C   UNL     1     105.344  96.000 115.000  1.00  0.00     0.045 A 
ATOM     14  C   UNL     1     104.011  97.160 116.647  1.00  0.00     0.039 A 
ATOM     15  C   UNL     1     103.084  97.496 115.660  1.00  0.00     0.003 A 
ATOM     16  C   UNL     1     103.288  97.084 114.343  1.00  0.00     0.006 A 
ATOM     17  F   UNL     1     106.031  96.090 117.265  1.00  0.00    -0.207 F 
ENDBRANCH   4  11
ENDBRANCH   2   3
BRANCH   2  18
ATOM     18  C   UNL     1     102.307  94.003 112.502  1.00  0.00     0.150 A 
ATOM     19  N   UNL     1     101.523  94.099 113.579  1.00  0.00    -0.170 NA
ATOM     20  C   UNL     1     101.661  94.414 111.322  1.00  0.00     0.067 A 
ATOM     21  N   UNL     1     100.371  94.574 113.077  1.00  0.00    -0.274 N 
ATOM     22  C   UNL     1     100.402  94.780 111.729  1.00  0.00     0.101 A 
ATOM     23  H   UNL     1      99.601  94.735 113.716  1.00  0.00     0.190 HD
BRANCH  22  24
ATOM     24  C   UNL     1      99.302  95.278 110.994  1.00  0.00     0.152 A 
ATOM     25  O   UNL     1      99.164  95.056 109.660  1.00  0.00    -0.460 OA
ATOM     26  C   UNL     1      98.250  96.025 111.470  1.00  0.00     0.053 A 
ATOM     27  C   UNL     1      98.011  95.667 109.282  1.00  0.00     0.101 A 
ATOM     28  C   UNL     1      97.411  96.277 110.358  1.00  0.00     0.046 A 
ATOM     29  C   UNL     1      97.654  95.555 107.861  1.00  0.00     0.087 C 
ENDBRANCH  22  24
ENDBRANCH   2  18
TORSDOF 4
ENDMDL
MODEL 13
REMARK VINA RESULT:      -6.4      2.418      3.831
REMARK SMILES Cc1ccc(-c2cc(C(=O)N3CCNC(=O)[C@@H]3c3cccc(F)c3)n[nH]2)o1
REMARK SMILES IDX 10 1 9 2 11 3 17 4 15 5 12 6 16 7 14 8 13 9 18 11 22 12
REMARK SMILES IDX 24 13 21 14 20 15 19 16 23 17 8 18 25 19 7 20 26 21 6 22
REMARK SMILES IDX 5 24 27 25 4 26 2 27 3 28 1 29
REMARK H PARENT 14 10 26 23
ROOT
ATOM      1  O   UNL     1     104.049  97.520 113.460  1.00  0.00    -0.267 OA
ATOM      2  C   UNL     1     103.387  96.533 113.782  1.00  0.00     0.275 C 
ENDROOT
BRANCH   2   3
ATOM      3  N   UNL     1     103.782  95.550 114.704  1.00  0.00    -0.319 N 
ATOM      4  C   UNL     1     104.049  94.128 114.369  1.00  0.00     0.205 C 
ATOM      5  C   UNL     1     104.073  93.152 115.558  1.00  0.00     0.247 C 
ATOM      6  C   UNL     1     103.981  95.951 116.095  1.00  0.00     0.142 C 
ATOM      7  O   UNL     1     104.381  91.967 115.405  1.00  0.00    -0.272 OA
ATOM      8  N   UNL     1     103.705  93.646 116.788  1.00  0.00    -0.352 N 
ATOM      9  C   UNL     1     103.239  94.996 117.000  1.00  0.00     0.137 C 
ATOM     10  H   UNL     1     103.685  93.005 117.574  1.00  0.00     0.163 HD
BRANCH   4  11
ATOM     11  C   UNL     1     105.312  93.955 113.535  1.00  0.00    -0.013 A 
ATOM     12  C   UNL     1     107.692  93.564 113.400  1.00  0.00     0.123 A 
ATOM     13  C   UNL     1     106.535  93.722 114.163  1.00  0.00     0.045 A 
ATOM     14  C   UNL     1     107.625  93.638 112.009  1.00  0.00     0.039 A 
ATOM     15  C   UNL     1     106.401  93.872 111.381  1.00  0.00     0.003 A 
ATOM     16  C   UNL     1     105.245  94.029 112.144  1.00  0.00     0.006 A 
ATOM     17  F   UNL     1     108.867  93.341 114.003  1.00  0.00    -0.207 F 
ENDBRANCH   4  11
ENDBRANCH   2   3
BRANCH   2  18
ATOM     18  C   UNL     1     102.083  96.395 113.120  1.00  0.00     0.150 A 
ATOM     19  N   UNL     1     100.960  96.509 113.835  1.00  0.00    -0.170 NA
ATOM     20  C   UNL     1     101.836  96.145 111.758  1.00  0.00     0.067 A 
ATOM     21  N   UNL     1      99.995  96.330 112.917  1.00  0.00    -0.274 N 
ATOM     22  C   UNL     1     100.467  96.108 111.657  1.00  0.00     0.101 A 
ATOM     23  H   UNL     1      99.030  96.372 113.224  1.00  0.00     0.190 HD
BRANCH  22  24
ATOM     24  C   UNL     1      99.628  95.897 110.540  1.00  0.00     0.152 A 
ATOM     25  O   UNL     1     100.125  95.605 109.308  1.00  0.00    -0.460 OA
ATOM     26  C   UNL     1      98.254  95.946 110.507  1.00  0.00     0.053 A 
ATOM     27  C   UNL     1      99.056  95.467 108.481  1.00  0.00     0.101 A 
ATOM     28  C   UNL     1      97.882  95.666 109.170  1.00  0.00     0.046 A 
ATOM     29  C   UNL     1      99.357  95.144 107.080  1.00  0.00     0.087 C 
ENDBRANCH  22  24
ENDBRANCH   2  18
TORSDOF 4
ENDMDL
MODEL 14
REMARK VINA RESULT:      -6.3      3.189      4.605
REMARK SMILES Cc1ccc(-c2cc(C(=O)N3CCNC(=O)[C@@H]3c3cccc(F)c3)n[nH]2)o1
REMARK SMILES IDX 10 1 9 2 11 3 17 4 15 5 12 6 16 7 14 8 13 9 18 11 22 12
REMARK SMILES IDX 24 13 21 14 20 15 19 16 23 17 8 18 25 19 7 20 26 21 6 22
REMARK SMILES IDX 5 24 27 25 4 26 2 27 3 28 1 29
REMARK H PARENT 14 10 26 23
ROOT
ATOM      1  O   UNL     1     102.544  92.806 114.342  1.00  0.00    -0.267 OA
ATOM      2  C   UNL     1     103.050  93.900 114.594  1.00  0.00     0.275 C 
ENDROOT
BRANCH   2   3
ATOM      3  N   UNL     1     104.340  94.102 115.111  1.00  0.00    -0.319 N 
ATOM      4  C   UNL     1     105.602  93.767 114.405  1.00  0.00     0.205 C 
ATOM      5  C   UNL     1     106.863  93.690 115.284  1.00  0.00     0.247 C 
ATOM      6  C   UNL     1     104.463  94.719 116.430  1.00  0.00     0.142 C 
ATOM      7  O   UNL     1     107.978  93.515 114.786  1.00  0.00    -0.272 OA
ATOM      8  N   UNL     1     106.690  93.791 116.645  1.00  0.00    -0.352 N 
ATOM      9  C   UNL     1     105.399  93.893 117.281  1.00  0.00     0.137 C 
ATOM     10  H   UNL     1     107.510  93.709 117.237  1.00  0.00     0.163 HD
BRANCH   4  11
ATOM     11  C   UNL     1     105.860  94.678 113.213  1.00  0.00    -0.013 A 
ATOM     12  C   UNL     1     106.148  96.895 112.297  1.00  0.00     0.123 A 
ATOM     13  C   UNL     1     105.911  96.060 113.390  1.00  0.00     0.045 A 
ATOM     14  C   UNL     1     106.332  96.348 111.029  1.00  0.00     0.039 A 
ATOM     15  C   UNL     1     106.280  94.965 110.851  1.00  0.00     0.003 A 
ATOM     16  C   UNL     1     106.045  94.130 111.943  1.00  0.00     0.006 A 
ATOM     17  F   UNL     1     106.196  98.223 112.468  1.00  0.00    -0.207 F 
ENDBRANCH   4  11
ENDBRANCH   2   3
BRANCH   2  18
ATOM     18  C   UNL     1     102.203  95.071 114.330  1.00  0.00     0.150 A 
ATOM     19  N   UNL     1     102.365  95.766 113.201  1.00  0.00    -0.170 NA
ATOM     20  C   UNL     1     101.186  95.594 115.149  1.00  0.00     0.067 A 
ATOM     21  N   UNL     1     101.442  96.737 113.306  1.00  0.00    -0.274 N 
ATOM     22  C   UNL     1     100.709  96.679 114.455  1.00  0.00     0.101 A 
ATOM     23  H   UNL     1     101.368  97.410 112.551  1.00  0.00     0.190 HD
BRANCH  22  24
ATOM     24  C   UNL     1      99.685  97.600 114.770  1.00  0.00     0.152 A 
ATOM     25  O   UNL     1      98.432  97.492 114.252  1.00  0.00    -0.460 OA
ATOM     26  C   UNL     1      99.772  98.693 115.599  1.00  0.00     0.053 A 
ATOM     27  C   UNL     1      97.713  98.528 114.758  1.00  0.00     0.101 A 
ATOM     28  C   UNL     1      98.491  99.296 115.593  1.00  0.00     0.046 A 
ATOM     29  C   UNL     1      96.309  98.612 114.331  1.00  0.00     0.087 C 
ENDBRANCH  22  24
ENDBRANCH   2  18
TORSDOF 4
ENDMDL
MODEL 15
REMARK VINA RESULT:      -6.2      3.225      4.756
REMARK SMILES Cc1ccc(-c2cc(C(=O)N3CCNC(=O)[C@@H]3c3cccc(F)c3)n[nH]2)o1
REMARK SMILES IDX 10 1 9 2 11 3 17 4 15 5 12 6 16 7 14 8 13 9 18 11 22 12
REMARK SMILES IDX 24 13 21 14 20 15 19 16 23 17 8 18 25 19 7 20 26 21 6 22
REMARK SMILES IDX 5 24 27 25 4 26 2 27 3 28 1 29
REMARK H PARENT 14 10 26 23
ROOT
ATOM      1  O   UNL     1     102.336  92.816 114.725  1.00  0.00    -0.267 OA
ATOM      2  C   UNL     1     102.213  93.771 113.958  1.00  0.00     0.275 C 
ENDROOT
BRANCH   2   3
ATOM      3  N   UNL     1     102.817  95.029 114.118  1.00  0.00    -0.319 N 
ATOM      4  C   UNL     1     104.205  95.252 114.592  1.00  0.00     0.205 C 
ATOM      5  C   UNL     1     104.530  96.677 115.074  1.00  0.00     0.247 C 
ATOM      6  C   UNL     1     102.040  96.215 113.762  1.00  0.00     0.142 C 
ATOM      7  O   UNL     1     105.677  96.995 115.397  1.00  0.00    -0.272 OA
ATOM      8  N   UNL     1     103.485  97.566 115.161  1.00  0.00    -0.352 N 
ATOM      9  C   UNL     1     102.111  97.214 114.894  1.00  0.00     0.137 C 
ATOM     10  H   UNL     1     103.680  98.500 115.508  1.00  0.00     0.163 HD
BRANCH   4  11
ATOM     11  C   UNL     1     105.246  94.803 113.575  1.00  0.00    -0.013 A 
ATOM     12  C   UNL     1     107.334  93.700 113.066  1.00  0.00     0.123 A 
ATOM     13  C   UNL     1     106.381  94.111 113.998  1.00  0.00     0.045 A 
ATOM     14  C   UNL     1     107.153  93.981 111.713  1.00  0.00     0.039 A 
ATOM     15  C   UNL     1     106.019  94.675 111.290  1.00  0.00     0.003 A 
ATOM     16  C   UNL     1     105.065  95.084 112.221  1.00  0.00     0.006 A 
ATOM     17  F   UNL     1     108.424  93.035 113.472  1.00  0.00    -0.207 F 
ENDBRANCH   4  11
ENDBRANCH   2   3
BRANCH   2  18
ATOM     18  C   UNL     1     101.346  93.548 112.793  1.00  0.00     0.150 A 
ATOM     19  N   UNL     1     100.031  93.383 112.965  1.00  0.00    -0.170 NA
ATOM     20  C   UNL     1     101.729  93.480 111.441  1.00  0.00     0.067 A 
ATOM     21  N   UNL     1      99.580  93.210 111.712  1.00  0.00    -0.274 N 
ATOM     22  C   UNL     1     100.557  93.258 110.762  1.00  0.00     0.101 A 
ATOM     23  H   UNL     1      98.586  93.061 111.579  1.00  0.00     0.190 HD
BRANCH  22  24
ATOM     24  C   UNL     1     100.305  93.103 109.380  1.00  0.00     0.152 A 
ATOM     25  O   UNL     1     100.102  94.166 108.558  1.00  0.00    -0.460 OA
ATOM     26  C   UNL     1     100.226  91.925 108.674  1.00  0.00     0.053 A 
ATOM     27  C   UNL     1      99.892  93.661 107.314  1.00  0.00     0.101 A 
ATOM     28  C   UNL     1      99.959  92.288 107.332  1.00  0.00     0.046 A 
ATOM     29  C   UNL     1      99.649  94.643 106.248  1.00  0.00     0.087 C 
ENDBRANCH  22  24
ENDBRANCH   2  18
TORSDOF 4
ENDMDL
