MODEL 1
REMARK VINA RESULT:      -8.6      0.000      0.000
REMARK SMILES O=c1c2cc(Cc3ccc(-n4cccn4)nc3)c3ccccc3c2ncn1[C@H]1CCOC[C@@H]1O
REMARK SMILES IDX 1 1 27 2 25 3 2 4 3 5 26 6 24 7 23 8 5 9 4 10 18 11 22 12
REMARK SMILES IDX 19 13 21 14 20 15 28 16 31 17 32 18 30 19 33 20 29 21 34 22
REMARK SMILES IDX 6 24 7 25 8 26 17 27 9 28 16 29 10 30 11 31 15 32 12 33
REMARK SMILES IDX 14 34 13 35
REMARK H PARENT 34 23
ROOT
ATOM      1  O   UNL     1     114.581  98.581 122.496  1.00  0.00    -0.269 OA
ATOM      2  N   UNL     1     114.510  96.274 122.794  1.00  0.00    -0.293 N 
ATOM      3  N   UNL     1     116.464  94.954 122.502  1.00  0.00    -0.237 NA
ATOM      4  C   UNL     1     115.136  97.486 122.501  1.00  0.00     0.261 A 
ATOM      5  C   UNL     1     116.578  97.381 122.177  1.00  0.00     0.067 A 
ATOM      6  C   UNL     1     115.208  95.083 122.779  1.00  0.00     0.203 A 
ATOM      7  C   UNL     1     117.195  96.119 122.189  1.00  0.00     0.085 A 
ATOM      8  C   UNL     1     118.576  96.015 121.879  1.00  0.00     0.009 A 
ATOM      9  C   UNL     1     118.659  98.432 121.563  1.00  0.00    -0.035 A 
ATOM     10  C   UNL     1     117.304  98.531 121.867  1.00  0.00     0.020 A 
ATOM     11  C   UNL     1     119.307  97.190 121.564  1.00  0.00    -0.013 A 
ATOM     12  C   UNL     1     119.268  94.783 121.868  1.00  0.00     0.011 A 
ATOM     13  C   UNL     1     120.675  97.102 121.256  1.00  0.00     0.009 A 
ATOM     14  C   UNL     1     120.628  94.714 121.559  1.00  0.00     0.001 A 
ATOM     15  C   UNL     1     121.330  95.872 121.253  1.00  0.00     0.001 A 
ENDROOT
BRANCH   2  16
ATOM     16  C   UNL     1     113.103  96.264 123.123  1.00  0.00     0.125 C 
ATOM     17  O   UNL     1     110.714  97.808 123.610  1.00  0.00    -0.379 OA
ATOM     18  C   UNL     1     110.807  97.031 122.421  1.00  0.00     0.194 C 
ATOM     19  C   UNL     1     111.374  97.179 124.708  1.00  0.00     0.162 C 
ATOM     20  C   UNL     1     112.260  96.855 121.987  1.00  0.00     0.163 C 
ATOM     21  C   UNL     1     112.861  97.036 124.424  1.00  0.00     0.057 C 
BRANCH  20  22
ATOM     22  O   UNL     1     112.275  95.992 120.854  1.00  0.00    -0.389 OA
ATOM     23  H   UNL     1     112.704  95.161 121.123  1.00  0.00     0.211 HD
ENDBRANCH  20  22
ENDBRANCH   2  16
BRANCH   9  24
ATOM     24  C   UNL     1     119.378  99.706 121.238  1.00  0.00     0.073 C 
BRANCH  24  25
ATOM     25  C   UNL     1     118.643 100.582 120.248  1.00  0.00    -0.025 A 
ATOM     26  C   UNL     1     118.386 101.919 120.527  1.00  0.00     0.009 A 
ATOM     27  C   UNL     1     118.206 100.077 119.034  1.00  0.00     0.117 A 
ATOM     28  C   UNL     1     117.708 102.701 119.597  1.00  0.00     0.049 A 
ATOM     29  N   UNL     1     117.545 100.805 118.105  1.00  0.00    -0.237 NA
ATOM     30  C   UNL     1     117.313 102.101 118.412  1.00  0.00     0.153 A 
BRANCH  30  31
ATOM     31  N   UNL     1     116.638 102.875 117.481  1.00  0.00    -0.223 N 
ATOM     32  N   UNL     1     115.356 103.222 117.685  1.00  0.00    -0.175 NA
ATOM     33  C   UNL     1     117.158 103.351 116.314  1.00  0.00     0.117 A 
ATOM     34  C   UNL     1     115.061 103.945 116.602  1.00  0.00     0.135 A 
ATOM     35  C   UNL     1     116.146 104.058 115.712  1.00  0.00     0.042 A 
ENDBRANCH  30  31
ENDBRANCH  24  25
ENDBRANCH   9  24
TORSDOF 5
ENDMDL
MODEL 2
REMARK VINA RESULT:      -8.0      2.457      7.350
REMARK SMILES O=c1c2cc(Cc3ccc(-n4cccn4)nc3)c3ccccc3c2ncn1[C@H]1CCOC[C@@H]1O
REMARK SMILES IDX 1 1 27 2 25 3 2 4 3 5 26 6 24 7 23 8 5 9 4 10 18 11 22 12
REMARK SMILES IDX 19 13 21 14 20 15 28 16 31 17 32 18 30 19 33 20 29 21 34 22
REMARK SMILES IDX 6 24 7 25 8 26 17 27 9 28 16 29 10 30 11 31 15 32 12 33
REMARK SMILES IDX 14 34 13 35
REMARK H PARENT 34 23
ROOT
ATOM      1  O   UNL     1     115.705  99.945 120.215  1.00  0.00    -0.269 OA
ATOM      2  N   UNL     1     117.796 100.661 119.485  1.00  0.00    -0.293 N 
ATOM      3  N   UNL     1     119.713  99.287 119.766  1.00  0.00    -0.237 NA
ATOM      4  C   UNL     1     116.910  99.758 120.075  1.00  0.00     0.261 A 
ATOM      5  C   UNL     1     117.529  98.498 120.550  1.00  0.00     0.067 A 
ATOM      6  C   UNL     1     119.141 100.373 119.364  1.00  0.00     0.203 A 
ATOM      7  C   UNL     1     118.909  98.304 120.380  1.00  0.00     0.085 A 
ATOM      8  C   UNL     1     119.505  97.098 120.835  1.00  0.00     0.009 A 
ATOM      9  C   UNL     1     117.318  96.341 121.604  1.00  0.00    -0.035 A 
ATOM     10  C   UNL     1     116.737  97.524 121.158  1.00  0.00     0.020 A 
ATOM     11  C   UNL     1     118.692  96.113 121.452  1.00  0.00    -0.013 A 
ATOM     12  C   UNL     1     120.885  96.827 120.702  1.00  0.00     0.011 A 
ATOM     13  C   UNL     1     119.268  94.914 121.907  1.00  0.00     0.009 A 
ATOM     14  C   UNL     1     121.441  95.631 121.159  1.00  0.00     0.001 A 
ATOM     15  C   UNL     1     120.632  94.676 121.761  1.00  0.00     0.001 A 
ENDROOT
BRANCH   2  16
ATOM     16  C   UNL     1     117.296 101.922 118.987  1.00  0.00     0.125 C 
ATOM     17  O   UNL     1     117.867 104.675 118.340  1.00  0.00    -0.379 OA
ATOM     18  C   UNL     1     117.619 103.752 117.285  1.00  0.00     0.194 C 
ATOM     19  C   UNL     1     117.089 104.379 119.498  1.00  0.00     0.162 C 
ATOM     20  C   UNL     1     118.004 102.332 117.690  1.00  0.00     0.163 C 
ATOM     21  C   UNL     1     117.459 103.010 120.052  1.00  0.00     0.057 C 
BRANCH  20  22
ATOM     22  O   UNL     1     117.639 101.460 116.625  1.00  0.00    -0.389 OA
ATOM     23  H   UNL     1     117.487 100.577 117.006  1.00  0.00     0.211 HD
ENDBRANCH  20  22
ENDBRANCH   2  16
BRANCH   9  24
ATOM     24  C   UNL     1     116.409  95.338 122.248  1.00  0.00     0.073 C 
BRANCH  24  25
ATOM     25  C   UNL     1     115.065  95.905 122.647  1.00  0.00    -0.025 A 
ATOM     26  C   UNL     1     113.891  95.443 122.062  1.00  0.00     0.009 A 
ATOM     27  C   UNL     1     114.964  96.899 123.606  1.00  0.00     0.117 A 
ATOM     28  C   UNL     1     112.669  95.983 122.448  1.00  0.00     0.049 A 
ATOM     29  N   UNL     1     113.795  97.448 124.007  1.00  0.00    -0.237 NA
ATOM     30  C   UNL     1     112.675  96.974 123.417  1.00  0.00     0.153 A 
BRANCH  30  31
ATOM     31  N   UNL     1     111.460  97.516 123.806  1.00  0.00    -0.223 N 
ATOM     32  N   UNL     1     111.090  97.502 125.098  1.00  0.00    -0.175 NA
ATOM     33  C   UNL     1     110.546  98.095 122.977  1.00  0.00     0.117 A 
ATOM     34  C   UNL     1     109.895  98.097 125.078  1.00  0.00     0.135 A 
ATOM     35  C   UNL     1     109.504  98.488 123.782  1.00  0.00     0.042 A 
ENDBRANCH  30  31
ENDBRANCH  24  25
ENDBRANCH   9  24
TORSDOF 5
ENDMDL
MODEL 3
REMARK VINA RESULT:      -8.0      2.517      7.283
REMARK SMILES O=c1c2cc(Cc3ccc(-n4cccn4)nc3)c3ccccc3c2ncn1[C@H]1CCOC[C@@H]1O
REMARK SMILES IDX 1 1 27 2 25 3 2 4 3 5 26 6 24 7 23 8 5 9 4 10 18 11 22 12
REMARK SMILES IDX 19 13 21 14 20 15 28 16 31 17 32 18 30 19 33 20 29 21 34 22
REMARK SMILES IDX 6 24 7 25 8 26 17 27 9 28 16 29 10 30 11 31 15 32 12 33
REMARK SMILES IDX 14 34 13 35
REMARK H PARENT 34 23
ROOT
ATOM      1  O   UNL     1     115.833 100.161 120.781  1.00  0.00    -0.269 OA
ATOM      2  N   UNL     1     117.846 100.841 119.830  1.00  0.00    -0.293 N 
ATOM      3  N   UNL     1     119.767  99.447 119.937  1.00  0.00    -0.237 NA
ATOM      4  C   UNL     1     117.015  99.957 120.522  1.00  0.00     0.261 A 
ATOM      5  C   UNL     1     117.666  98.697 120.951  1.00  0.00     0.067 A 
ATOM      6  C   UNL     1     119.168 100.535 119.579  1.00  0.00     0.203 A 
ATOM      7  C   UNL     1     119.019  98.483 120.645  1.00  0.00     0.085 A 
ATOM      8  C   UNL     1     119.646  97.277 121.056  1.00  0.00     0.009 A 
ATOM      9  C   UNL     1     117.540  96.558 122.055  1.00  0.00    -0.035 A 
ATOM     10  C   UNL     1     116.929  97.741 121.652  1.00  0.00     0.020 A 
ATOM     11  C   UNL     1     118.889  96.311 121.768  1.00  0.00    -0.013 A 
ATOM     12  C   UNL     1     121.002  96.988 120.787  1.00  0.00     0.011 A 
ATOM     13  C   UNL     1     119.495  95.112 122.180  1.00  0.00     0.009 A 
ATOM     14  C   UNL     1     121.589  95.792 121.205  1.00  0.00     0.001 A 
ATOM     15  C   UNL     1     120.836  94.855 121.900  1.00  0.00     0.001 A 
ENDROOT
BRANCH   2  16
ATOM     16  C   UNL     1     117.311 102.100 119.367  1.00  0.00     0.125 C 
ATOM     17  O   UNL     1     117.836 104.847 118.656  1.00  0.00    -0.379 OA
ATOM     18  C   UNL     1     117.501 103.918 117.631  1.00  0.00     0.194 C 
ATOM     19  C   UNL     1     117.155 104.561 119.876  1.00  0.00     0.162 C 
ATOM     20  C   UNL     1     117.912 102.499 118.013  1.00  0.00     0.163 C 
ATOM     21  C   UNL     1     117.564 103.195 120.407  1.00  0.00     0.057 C 
BRANCH  20  22
ATOM     22  O   UNL     1     117.458 101.621 116.988  1.00  0.00    -0.389 OA
ATOM     23  H   UNL     1     116.755 102.080 116.497  1.00  0.00     0.211 HD
ENDBRANCH  20  22
ENDBRANCH   2  16
BRANCH   9  24
ATOM     24  C   UNL     1     116.691  95.576 122.804  1.00  0.00     0.073 C 
BRANCH  24  25
ATOM     25  C   UNL     1     115.234  95.602 122.402  1.00  0.00    -0.025 A 
ATOM     26  C   UNL     1     114.396  96.633 122.815  1.00  0.00     0.009 A 
ATOM     27  C   UNL     1     114.691  94.603 121.611  1.00  0.00     0.117 A 
ATOM     28  C   UNL     1     113.059  96.631 122.430  1.00  0.00     0.049 A 
ATOM     29  N   UNL     1     113.398  94.567 121.218  1.00  0.00    -0.237 NA
ATOM     30  C   UNL     1     112.614  95.585 121.638  1.00  0.00     0.153 A 
BRANCH  30  31
ATOM     31  N   UNL     1     111.283  95.578 121.251  1.00  0.00    -0.223 N 
ATOM     32  N   UNL     1     110.685  94.431 120.888  1.00  0.00    -0.175 NA
ATOM     33  C   UNL     1     110.465  96.667 121.194  1.00  0.00     0.117 A 
ATOM     34  C   UNL     1     109.441  94.817 120.591  1.00  0.00     0.135 A 
ATOM     35  C   UNL     1     109.247  96.201 120.764  1.00  0.00     0.042 A 
ENDBRANCH  30  31
ENDBRANCH  24  25
ENDBRANCH   9  24
TORSDOF 5
ENDMDL
MODEL 4
REMARK VINA RESULT:      -8.0      3.973      7.412
REMARK SMILES O=c1c2cc(Cc3ccc(-n4cccn4)nc3)c3ccccc3c2ncn1[C@H]1CCOC[C@@H]1O
REMARK SMILES IDX 1 1 27 2 25 3 2 4 3 5 26 6 24 7 23 8 5 9 4 10 18 11 22 12
REMARK SMILES IDX 19 13 21 14 20 15 28 16 31 17 32 18 30 19 33 20 29 21 34 22
REMARK SMILES IDX 6 24 7 25 8 26 17 27 9 28 16 29 10 30 11 31 15 32 12 33
REMARK SMILES IDX 14 34 13 35
REMARK H PARENT 34 23
ROOT
ATOM      1  O   UNL     1     116.531  99.581 122.314  1.00  0.00    -0.269 OA
ATOM      2  N   UNL     1     117.857  98.770 120.580  1.00  0.00    -0.293 N 
ATOM      3  N   UNL     1     118.114 100.011 118.571  1.00  0.00    -0.237 NA
ATOM      4  C   UNL     1     117.013  99.699 121.190  1.00  0.00     0.261 A 
ATOM      5  C   UNL     1     116.708 100.896 120.372  1.00  0.00     0.067 A 
ATOM      6  C   UNL     1     118.357  98.980 119.311  1.00  0.00     0.203 A 
ATOM      7  C   UNL     1     117.268 101.014 119.090  1.00  0.00     0.085 A 
ATOM      8  C   UNL     1     116.978 102.159 118.304  1.00  0.00     0.009 A 
ATOM      9  C   UNL     1     115.586 103.015 120.115  1.00  0.00    -0.035 A 
ATOM     10  C   UNL     1     115.872 101.890 120.883  1.00  0.00     0.020 A 
ATOM     11  C   UNL     1     116.127 103.164 118.831  1.00  0.00    -0.013 A 
ATOM     12  C   UNL     1     117.502 102.350 117.006  1.00  0.00     0.011 A 
ATOM     13  C   UNL     1     115.831 104.304 118.064  1.00  0.00     0.009 A 
ATOM     14  C   UNL     1     117.197 103.489 116.257  1.00  0.00     0.001 A 
ATOM     15  C   UNL     1     116.363 104.465 116.787  1.00  0.00     0.001 A 
ENDROOT
BRANCH   2  16
ATOM     16  C   UNL     1     118.217  97.566 121.292  1.00  0.00     0.125 C 
ATOM     17  O   UNL     1     119.796  95.151 121.334  1.00  0.00    -0.379 OA
ATOM     18  C   UNL     1     120.120  96.206 122.232  1.00  0.00     0.194 C 
ATOM     19  C   UNL     1     118.391  95.061 121.104  1.00  0.00     0.162 C 
ATOM     20  C   UNL     1     119.704  97.562 121.667  1.00  0.00     0.163 C 
ATOM     21  C   UNL     1     117.876  96.334 120.449  1.00  0.00     0.057 C 
BRANCH  20  22
ATOM     22  O   UNL     1     119.971  98.549 122.659  1.00  0.00    -0.389 OA
ATOM     23  H   UNL     1     120.252  98.086 123.467  1.00  0.00     0.211 HD
ENDBRANCH  20  22
ENDBRANCH   2  16
BRANCH   9  24
ATOM     24  C   UNL     1     114.681 104.042 120.724  1.00  0.00     0.073 C 
BRANCH  24  25
ATOM     25  C   UNL     1     113.214 103.686 120.637  1.00  0.00    -0.025 A 
ATOM     26  C   UNL     1     112.406 103.697 121.769  1.00  0.00     0.009 A 
ATOM     27  C   UNL     1     112.631 103.340 119.428  1.00  0.00     0.117 A 
ATOM     28  C   UNL     1     111.059 103.364 121.659  1.00  0.00     0.049 A 
ATOM     29  N   UNL     1     111.328 103.012 119.282  1.00  0.00    -0.237 NA
ATOM     30  C   UNL     1     110.574 103.033 120.404  1.00  0.00     0.153 A 
BRANCH  30  31
ATOM     31  N   UNL     1     109.233 102.701 120.288  1.00  0.00    -0.223 N 
ATOM     32  N   UNL     1     108.850 101.414 120.255  1.00  0.00    -0.175 NA
ATOM     33  C   UNL     1     108.200 103.586 120.199  1.00  0.00     0.117 A 
ATOM     34  C   UNL     1     107.522 101.495 120.140  1.00  0.00     0.135 A 
ATOM     35  C   UNL     1     107.061 102.825 120.100  1.00  0.00     0.042 A 
ENDBRANCH  30  31
ENDBRANCH  24  25
ENDBRANCH   9  24
TORSDOF 5
ENDMDL
MODEL 5
REMARK VINA RESULT:      -7.9      3.041      7.179
REMARK SMILES O=c1c2cc(Cc3ccc(-n4cccn4)nc3)c3ccccc3c2ncn1[C@H]1CCOC[C@@H]1O
REMARK SMILES IDX 1 1 27 2 25 3 2 4 3 5 26 6 24 7 23 8 5 9 4 10 18 11 22 12
REMARK SMILES IDX 19 13 21 14 20 15 28 16 31 17 32 18 30 19 33 20 29 21 34 22
REMARK SMILES IDX 6 24 7 25 8 26 17 27 9 28 16 29 10 30 11 31 15 32 12 33
REMARK SMILES IDX 14 34 13 35
REMARK H PARENT 34 23
ROOT
ATOM      1  O   UNL     1     113.737 101.442 121.989  1.00  0.00    -0.269 OA
ATOM      2  N   UNL     1     112.337 102.304 120.340  1.00  0.00    -0.293 N 
ATOM      3  N   UNL     1     113.241 103.256 118.361  1.00  0.00    -0.237 NA
ATOM      4  C   UNL     1     113.576 101.987 120.901  1.00  0.00     0.261 A 
ATOM      5  C   UNL     1     114.747 102.362 120.074  1.00  0.00     0.067 A 
ATOM      6  C   UNL     1     112.242 102.917 119.107  1.00  0.00     0.203 A 
ATOM      7  C   UNL     1     114.542 102.983 118.832  1.00  0.00     0.085 A 
ATOM      8  C   UNL     1     115.662 103.343 118.038  1.00  0.00     0.009 A 
ATOM      9  C   UNL     1     117.136 102.444 119.761  1.00  0.00    -0.035 A 
ATOM     10  C   UNL     1     116.036 102.093 120.538  1.00  0.00     0.020 A 
ATOM     11  C   UNL     1     116.969 103.067 118.517  1.00  0.00    -0.013 A 
ATOM     12  C   UNL     1     115.539 103.972 116.779  1.00  0.00     0.011 A 
ATOM     13  C   UNL     1     118.087 103.417 117.742  1.00  0.00     0.009 A 
ATOM     14  C   UNL     1     116.661 104.314 116.022  1.00  0.00     0.001 A 
ATOM     15  C   UNL     1     117.934 104.036 116.504  1.00  0.00     0.001 A 
ENDROOT
BRANCH   2  16
ATOM     16  C   UNL     1     111.129 101.982 121.065  1.00  0.00     0.125 C 
ATOM     17  O   UNL     1     108.291 101.474 120.949  1.00  0.00    -0.379 OA
ATOM     18  C   UNL     1     109.177 100.397 121.235  1.00  0.00     0.194 C 
ATOM     19  C   UNL     1     108.757 102.705 121.498  1.00  0.00     0.162 C 
ATOM     20  C   UNL     1     110.552 100.632 120.618  1.00  0.00     0.163 C 
ATOM     21  C   UNL     1     110.092 103.093 120.880  1.00  0.00     0.057 C 
BRANCH  20  22
ATOM     22  O   UNL     1     111.403  99.566 121.028  1.00  0.00    -0.389 OA
ATOM     23  H   UNL     1     112.282  99.726 120.643  1.00  0.00     0.211 HD
ENDBRANCH  20  22
ENDBRANCH   2  16
BRANCH   9  24
ATOM     24  C   UNL     1     118.491 102.128 120.319  1.00  0.00     0.073 C 
BRANCH  24  25
ATOM     25  C   UNL     1     118.729 100.650 120.532  1.00  0.00    -0.025 A 
ATOM     26  C   UNL     1     118.673  99.755 119.469  1.00  0.00     0.009 A 
ATOM     27  C   UNL     1     119.012 100.145 121.791  1.00  0.00     0.117 A 
ATOM     28  C   UNL     1     118.897  98.400 119.695  1.00  0.00     0.049 A 
ATOM     29  N   UNL     1     119.235  98.836 122.049  1.00  0.00    -0.237 NA
ATOM     30  C   UNL     1     119.172  97.996 120.992  1.00  0.00     0.153 A 
BRANCH  30  31
ATOM     31  N   UNL     1     119.396  96.648 121.223  1.00  0.00    -0.223 N 
ATOM     32  N   UNL     1     118.410  95.753 121.045  1.00  0.00    -0.175 NA
ATOM     33  C   UNL     1     120.573  96.097 121.634  1.00  0.00     0.117 A 
ATOM     34  C   UNL     1     118.993  94.593 121.358  1.00  0.00     0.135 A 
ATOM     35  C   UNL     1     120.341  94.747 121.733  1.00  0.00     0.042 A 
ENDBRANCH  30  31
ENDBRANCH  24  25
ENDBRANCH   9  24
TORSDOF 5
ENDMDL
MODEL 6
REMARK VINA RESULT:      -7.7      3.758      6.696
REMARK SMILES O=c1c2cc(Cc3ccc(-n4cccn4)nc3)c3ccccc3c2ncn1[C@H]1CCOC[C@@H]1O
REMARK SMILES IDX 1 1 27 2 25 3 2 4 3 5 26 6 24 7 23 8 5 9 4 10 18 11 22 12
REMARK SMILES IDX 19 13 21 14 20 15 28 16 31 17 32 18 30 19 33 20 29 21 34 22
REMARK SMILES IDX 6 24 7 25 8 26 17 27 9 28 16 29 10 30 11 31 15 32 12 33
REMARK SMILES IDX 14 34 13 35
REMARK H PARENT 34 23
ROOT
ATOM      1  O   UNL     1     114.144  99.065 122.184  1.00  0.00    -0.269 OA
ATOM      2  N   UNL     1     112.626  97.316 122.415  1.00  0.00    -0.293 N 
ATOM      3  N   UNL     1     110.310  97.662 122.017  1.00  0.00    -0.237 NA
ATOM      4  C   UNL     1     112.996  98.632 122.137  1.00  0.00     0.261 A 
ATOM      5  C   UNL     1     111.877  99.530 121.766  1.00  0.00     0.067 A 
ATOM      6  C   UNL     1     111.309  96.909 122.338  1.00  0.00     0.203 A 
ATOM      7  C   UNL     1     110.571  99.016 121.718  1.00  0.00     0.085 A 
ATOM      8  C   UNL     1     109.496  99.872 121.363  1.00  0.00     0.009 A 
ATOM      9  C   UNL     1     111.080 101.711 121.120  1.00  0.00    -0.035 A 
ATOM     10  C   UNL     1     112.132 100.869 121.469  1.00  0.00     0.020 A 
ATOM     11  C   UNL     1     109.765 101.233 121.062  1.00  0.00    -0.013 A 
ATOM     12  C   UNL     1     108.156  99.432 121.292  1.00  0.00     0.011 A 
ATOM     13  C   UNL     1     108.711 102.093 120.709  1.00  0.00     0.009 A 
ATOM     14  C   UNL     1     107.121 100.300 120.939  1.00  0.00     0.001 A 
ATOM     15  C   UNL     1     107.399 101.629 120.648  1.00  0.00     0.001 A 
ENDROOT
BRANCH   2  16
ATOM     16  C   UNL     1     113.642  96.358 122.788  1.00  0.00     0.125 C 
ATOM     17  O   UNL     1     114.310  93.994 124.302  1.00  0.00    -0.379 OA
ATOM     18  C   UNL     1     114.249  93.914 122.882  1.00  0.00     0.194 C 
ATOM     19  C   UNL     1     114.792  95.263 124.742  1.00  0.00     0.162 C 
ATOM     20  C   UNL     1     113.281  94.946 122.310  1.00  0.00     0.163 C 
ATOM     21  C   UNL     1     113.846  96.372 124.306  1.00  0.00     0.057 C 
BRANCH  20  22
ATOM     22  O   UNL     1     113.350  94.869 120.889  1.00  0.00    -0.389 OA
ATOM     23  H   UNL     1     112.727  95.523 120.529  1.00  0.00     0.211 HD
ENDBRANCH  20  22
ENDBRANCH   2  16
BRANCH   9  24
ATOM     24  C   UNL     1     111.425 103.137 120.814  1.00  0.00     0.073 C 
BRANCH  24  25
ATOM     25  C   UNL     1     112.677 103.295 119.982  1.00  0.00    -0.025 A 
ATOM     26  C   UNL     1     113.798 103.943 120.489  1.00  0.00     0.009 A 
ATOM     27  C   UNL     1     112.746 102.797 118.690  1.00  0.00     0.117 A 
ATOM     28  C   UNL     1     114.936 104.073 119.700  1.00  0.00     0.049 A 
ATOM     29  N   UNL     1     113.833 102.904 117.894  1.00  0.00    -0.237 NA
ATOM     30  C   UNL     1     114.903 103.540 118.421  1.00  0.00     0.153 A 
BRANCH  30  31
ATOM     31  N   UNL     1     116.035 103.667 117.630  1.00  0.00    -0.223 N 
ATOM     32  N   UNL     1     116.726 102.579 117.252  1.00  0.00    -0.175 NA
ATOM     33  C   UNL     1     116.554 104.839 117.166  1.00  0.00     0.117 A 
ATOM     34  C   UNL     1     117.720 103.090 116.521  1.00  0.00     0.135 A 
ATOM     35  C   UNL     1     117.663 104.494 116.434  1.00  0.00     0.042 A 
ENDBRANCH  30  31
ENDBRANCH  24  25
ENDBRANCH   9  24
TORSDOF 5
ENDMDL
MODEL 7
REMARK VINA RESULT:      -7.7      2.591      5.891
REMARK SMILES O=c1c2cc(Cc3ccc(-n4cccn4)nc3)c3ccccc3c2ncn1[C@H]1CCOC[C@@H]1O
REMARK SMILES IDX 1 1 27 2 25 3 2 4 3 5 26 6 24 7 23 8 5 9 4 10 18 11 22 12
REMARK SMILES IDX 19 13 21 14 20 15 28 16 31 17 32 18 30 19 33 20 29 21 34 22
REMARK SMILES IDX 6 24 7 25 8 26 17 27 9 28 16 29 10 30 11 31 15 32 12 33
REMARK SMILES IDX 14 34 13 35
REMARK H PARENT 34 23
ROOT
ATOM      1  O   UNL     1     118.584  98.643 121.262  1.00  0.00    -0.269 OA
ATOM      2  N   UNL     1     118.192  96.378 121.629  1.00  0.00    -0.293 N 
ATOM      3  N   UNL     1     116.073  95.624 122.392  1.00  0.00    -0.237 NA
ATOM      4  C   UNL     1     117.839  97.728 121.600  1.00  0.00     0.261 A 
ATOM      5  C   UNL     1     116.447  98.017 122.020  1.00  0.00     0.067 A 
ATOM      6  C   UNL     1     117.292  95.408 122.021  1.00  0.00     0.203 A 
ATOM      7  C   UNL     1     115.610  96.957 122.402  1.00  0.00     0.085 A 
ATOM      8  C   UNL     1     114.277  97.230 122.805  1.00  0.00     0.009 A 
ATOM      9  C   UNL     1     114.679  99.605 122.425  1.00  0.00    -0.035 A 
ATOM     10  C   UNL     1     115.986  99.334 122.031  1.00  0.00     0.020 A 
ATOM     11  C   UNL     1     113.817  98.572 122.814  1.00  0.00    -0.013 A 
ATOM     12  C   UNL     1     113.374  96.220 123.204  1.00  0.00     0.011 A 
ATOM     13  C   UNL     1     112.499  98.858 123.210  1.00  0.00     0.009 A 
ATOM     14  C   UNL     1     112.068  96.521 123.596  1.00  0.00     0.001 A 
ATOM     15  C   UNL     1     111.632  97.840 123.598  1.00  0.00     0.001 A 
ENDROOT
BRANCH   2  16
ATOM     16  C   UNL     1     119.527  95.987 121.238  1.00  0.00     0.125 C 
ATOM     17  O   UNL     1     122.187  96.832 120.505  1.00  0.00    -0.379 OA
ATOM     18  C   UNL     1     121.983  96.197 121.763  1.00  0.00     0.194 C 
ATOM     19  C   UNL     1     121.320  96.310 119.500  1.00  0.00     0.162 C 
ATOM     20  C   UNL     1     120.565  96.429 122.277  1.00  0.00     0.163 C 
ATOM     21  C   UNL     1     119.866  96.571 119.864  1.00  0.00     0.057 C 
BRANCH  20  22
ATOM     22  O   UNL     1     120.411  95.686 123.483  1.00  0.00    -0.389 OA
ATOM     23  H   UNL     1     119.654  96.062 123.965  1.00  0.00     0.211 HD
ENDBRANCH  20  22
ENDBRANCH   2  16
BRANCH   9  24
ATOM     24  C   UNL     1     114.251 101.041 122.414  1.00  0.00     0.073 C 
BRANCH  24  25
ATOM     25  C   UNL     1     114.687 101.796 121.178  1.00  0.00    -0.025 A 
ATOM     26  C   UNL     1     115.722 102.722 121.233  1.00  0.00     0.009 A 
ATOM     27  C   UNL     1     114.069 101.586 119.956  1.00  0.00     0.117 A 
ATOM     28  C   UNL     1     116.102 103.402 120.080  1.00  0.00     0.049 A 
ATOM     29  N   UNL     1     114.410 102.226 118.815  1.00  0.00    -0.237 NA
ATOM     30  C   UNL     1     115.420 103.120 118.907  1.00  0.00     0.153 A 
BRANCH  30  31
ATOM     31  N   UNL     1     115.794 103.794 117.755  1.00  0.00    -0.223 N 
ATOM     32  N   UNL     1     115.115 103.614 116.610  1.00  0.00    -0.175 NA
ATOM     33  C   UNL     1     116.834 104.668 117.647  1.00  0.00     0.117 A 
ATOM     34  C   UNL     1     115.755 104.409 115.749  1.00  0.00     0.135 A 
ATOM     35  C   UNL     1     116.836 105.091 116.340  1.00  0.00     0.042 A 
ENDBRANCH  30  31
ENDBRANCH  24  25
ENDBRANCH   9  24
TORSDOF 5
ENDMDL
MODEL 8
REMARK VINA RESULT:      -7.6      3.582      8.560
REMARK SMILES O=c1c2cc(Cc3ccc(-n4cccn4)nc3)c3ccccc3c2ncn1[C@H]1CCOC[C@@H]1O
REMARK SMILES IDX 1 1 27 2 25 3 2 4 3 5 26 6 24 7 23 8 5 9 4 10 18 11 22 12
REMARK SMILES IDX 19 13 21 14 20 15 28 16 31 17 32 18 30 19 33 20 29 21 34 22
REMARK SMILES IDX 6 24 7 25 8 26 17 27 9 28 16 29 10 30 11 31 15 32 12 33
REMARK SMILES IDX 14 34 13 35
REMARK H PARENT 34 23
ROOT
ATOM      1  O   UNL     1     117.451  95.391 122.123  1.00  0.00    -0.269 OA
ATOM      2  N   UNL     1     118.565  97.243 121.258  1.00  0.00    -0.293 N 
ATOM      3  N   UNL     1     117.494  99.361 121.156  1.00  0.00    -0.237 NA
ATOM      4  C   UNL     1     117.476  96.583 121.828  1.00  0.00     0.261 A 
ATOM      5  C   UNL     1     116.288  97.434 122.071  1.00  0.00     0.067 A 
ATOM      6  C   UNL     1     118.511  98.589 120.957  1.00  0.00     0.203 A 
ATOM      7  C   UNL     1     116.336  98.795 121.727  1.00  0.00     0.085 A 
ATOM      8  C   UNL     1     115.199  99.614 121.959  1.00  0.00     0.009 A 
ATOM      9  C   UNL     1     114.024  97.678 122.865  1.00  0.00    -0.035 A 
ATOM     10  C   UNL     1     115.140  96.877 122.637  1.00  0.00     0.020 A 
ATOM     11  C   UNL     1     114.036  99.039 122.534  1.00  0.00    -0.013 A 
ATOM     12  C   UNL     1     115.168 100.989 121.640  1.00  0.00     0.011 A 
ATOM     13  C   UNL     1     112.904  99.837 122.769  1.00  0.00     0.009 A 
ATOM     14  C   UNL     1     114.034 101.768 121.880  1.00  0.00     0.001 A 
ATOM     15  C   UNL     1     112.904 101.192 122.444  1.00  0.00     0.001 A 
ENDROOT
BRANCH   2  16
ATOM     16  C   UNL     1     119.775  96.504 120.979  1.00  0.00     0.125 C 
ATOM     17  O   UNL     1     122.626  96.589 120.543  1.00  0.00    -0.379 OA
ATOM     18  C   UNL     1     122.125  96.014 121.745  1.00  0.00     0.194 C 
ATOM     19  C   UNL     1     121.759  96.346 119.437  1.00  0.00     0.162 C 
ATOM     20  C   UNL     1     120.780  96.622 122.132  1.00  0.00     0.163 C 
ATOM     21  C   UNL     1     120.402  96.995 119.671  1.00  0.00     0.057 C 
BRANCH  20  22
ATOM     22  O   UNL     1     120.303  95.931 123.282  1.00  0.00    -0.389 OA
ATOM     23  H   UNL     1     120.503  96.480 124.060  1.00  0.00     0.211 HD
ENDBRANCH  20  22
ENDBRANCH   2  16
BRANCH   9  24
ATOM     24  C   UNL     1     112.826  97.015 123.474  1.00  0.00     0.073 C 
BRANCH  24  25
ATOM     25  C   UNL     1     111.852  96.467 122.455  1.00  0.00    -0.025 A 
ATOM     26  C   UNL     1     110.728  97.191 122.077  1.00  0.00     0.009 A 
ATOM     27  C   UNL     1     112.053  95.227 121.869  1.00  0.00     0.117 A 
ATOM     28  C   UNL     1     109.849  96.661 121.137  1.00  0.00     0.049 A 
ATOM     29  N   UNL     1     111.222  94.680 120.954  1.00  0.00    -0.237 NA
ATOM     30  C   UNL     1     110.139  95.413 120.610  1.00  0.00     0.153 A 
BRANCH  30  31
ATOM     31  N   UNL     1     109.268  94.880 119.674  1.00  0.00    -0.223 N 
ATOM     32  N   UNL     1     109.738  94.330 118.541  1.00  0.00    -0.175 NA
ATOM     33  C   UNL     1     107.909  94.848 119.779  1.00  0.00     0.117 A 
ATOM     34  C   UNL     1     108.628  93.938 117.910  1.00  0.00     0.135 A 
ATOM     35  C   UNL     1     107.458  94.236 118.636  1.00  0.00     0.042 A 
ENDBRANCH  30  31
ENDBRANCH  24  25
ENDBRANCH   9  24
TORSDOF 5
ENDMDL
MODEL 9
REMARK VINA RESULT:      -7.5     13.208     15.702
REMARK SMILES O=c1c2cc(Cc3ccc(-n4cccn4)nc3)c3ccccc3c2ncn1[C@H]1CCOC[C@@H]1O
REMARK SMILES IDX 1 1 27 2 25 3 2 4 3 5 26 6 24 7 23 8 5 9 4 10 18 11 22 12
REMARK SMILES IDX 19 13 21 14 20 15 28 16 31 17 32 18 30 19 33 20 29 21 34 22
REMARK SMILES IDX 6 24 7 25 8 26 17 27 9 28 16 29 10 30 11 31 15 32 12 33
REMARK SMILES IDX 14 34 13 35
REMARK H PARENT 34 23
ROOT
ATOM      1  O   UNL     1     106.757  94.671 115.979  1.00  0.00    -0.269 OA
ATOM      2  N   UNL     1     105.376  93.906 114.268  1.00  0.00    -0.293 N 
ATOM      3  N   UNL     1     103.382  92.714 114.763  1.00  0.00    -0.237 NA
ATOM      4  C   UNL     1     105.746  94.085 115.602  1.00  0.00     0.261 A 
ATOM      5  C   UNL     1     104.811  93.501 116.592  1.00  0.00     0.067 A 
ATOM      6  C   UNL     1     104.220  93.234 113.928  1.00  0.00     0.203 A 
ATOM      7  C   UNL     1     103.660  92.836 116.141  1.00  0.00     0.085 A 
ATOM      8  C   UNL     1     102.762  92.275 117.087  1.00  0.00     0.009 A 
ATOM      9  C   UNL     1     104.204  93.072 118.886  1.00  0.00    -0.035 A 
ATOM     10  C   UNL     1     105.083  93.620 117.956  1.00  0.00     0.020 A 
ATOM     11  C   UNL     1     103.046  92.400 118.471  1.00  0.00    -0.013 A 
ATOM     12  C   UNL     1     101.584  91.590 116.714  1.00  0.00     0.011 A 
ATOM     13  C   UNL     1     102.166  91.851 119.419  1.00  0.00     0.009 A 
ATOM     14  C   UNL     1     100.721  91.050 117.669  1.00  0.00     0.001 A 
ATOM     15  C   UNL     1     101.012  91.181 119.020  1.00  0.00     0.001 A 
ENDROOT
BRANCH   2  16
ATOM     16  C   UNL     1     106.220  94.436 113.222  1.00  0.00     0.125 C 
ATOM     17  O   UNL     1     106.422  95.330 110.486  1.00  0.00    -0.379 OA
ATOM     18  C   UNL     1     106.513  96.286 111.536  1.00  0.00     0.194 C 
ATOM     19  C   UNL     1     107.001  94.079 110.855  1.00  0.00     0.162 C 
ATOM     20  C   UNL     1     105.748  95.825 112.773  1.00  0.00     0.163 C 
ATOM     21  C   UNL     1     106.252  93.473 112.032  1.00  0.00     0.057 C 
BRANCH  20  22
ATOM     22  O   UNL     1     105.966  96.782 113.805  1.00  0.00    -0.389 OA
ATOM     23  H   UNL     1     105.336  96.592 114.521  1.00  0.00     0.211 HD
ENDBRANCH  20  22
ENDBRANCH   2  16
BRANCH   9  24
ATOM     24  C   UNL     1     104.557  93.236 120.333  1.00  0.00     0.073 C 
BRANCH  24  25
ATOM     25  C   UNL     1     103.789  94.340 121.025  1.00  0.00    -0.025 A 
ATOM     26  C   UNL     1     103.396  95.480 120.333  1.00  0.00     0.009 A 
ATOM     27  C   UNL     1     103.456  94.248 122.366  1.00  0.00     0.117 A 
ATOM     28  C   UNL     1     102.691  96.480 120.996  1.00  0.00     0.049 A 
ATOM     29  N   UNL     1     102.773  95.198 123.043  1.00  0.00    -0.237 NA
ATOM     30  C   UNL     1     102.407  96.292 122.338  1.00  0.00     0.153 A 
BRANCH  30  31
ATOM     31  N   UNL     1     101.704  97.285 123.004  1.00  0.00    -0.223 N 
ATOM     32  N   UNL     1     101.497  97.201 124.329  1.00  0.00    -0.175 NA
ATOM     33  C   UNL     1     101.171  98.401 122.432  1.00  0.00     0.117 A 
ATOM     34  C   UNL     1     100.804  98.310 124.598  1.00  0.00     0.135 A 
ATOM     35  C   UNL     1     100.571  99.096 123.453  1.00  0.00     0.042 A 
ENDBRANCH  30  31
ENDBRANCH  24  25
ENDBRANCH   9  24
TORSDOF 5
ENDMDL
MODEL 10
REMARK VINA RESULT:      -7.5     10.536     13.688
REMARK SMILES O=c1c2cc(Cc3ccc(-n4cccn4)nc3)c3ccccc3c2ncn1[C@H]1CCOC[C@@H]1O
REMARK SMILES IDX 1 1 27 2 25 3 2 4 3 5 26 6 24 7 23 8 5 9 4 10 18 11 22 12
REMARK SMILES IDX 19 13 21 14 20 15 28 16 31 17 32 18 30 19 33 20 29 21 34 22
REMARK SMILES IDX 6 24 7 25 8 26 17 27 9 28 16 29 10 30 11 31 15 32 12 33
REMARK SMILES IDX 14 34 13 35
REMARK H PARENT 34 23
ROOT
ATOM      1  O   UNL     1     105.970  96.998 119.001  1.00  0.00    -0.269 OA
ATOM      2  N   UNL     1     104.926  97.561 121.003  1.00  0.00    -0.293 N 
ATOM      3  N   UNL     1     103.358  96.086 122.008  1.00  0.00    -0.237 NA
ATOM      4  C   UNL     1     105.188  96.735 119.909  1.00  0.00     0.261 A 
ATOM      5  C   UNL     1     104.435  95.458 119.898  1.00  0.00     0.067 A 
ATOM      6  C   UNL     1     104.030  97.189 121.985  1.00  0.00     0.203 A 
ATOM      7  C   UNL     1     103.546  95.175 120.946  1.00  0.00     0.085 A 
ATOM      8  C   UNL     1     102.823  93.954 120.938  1.00  0.00     0.009 A 
ATOM      9  C   UNL     1     103.912  93.357 118.839  1.00  0.00    -0.035 A 
ATOM     10  C   UNL     1     104.619  94.556 118.850  1.00  0.00     0.020 A 
ATOM     11  C   UNL     1     103.015  93.042 119.868  1.00  0.00    -0.013 A 
ATOM     12  C   UNL     1     101.910  93.596 121.955  1.00  0.00     0.011 A 
ATOM     13  C   UNL     1     102.307  91.828 119.847  1.00  0.00     0.009 A 
ATOM     14  C   UNL     1     101.214  92.386 121.918  1.00  0.00     0.001 A 
ATOM     15  C   UNL     1     101.413  91.504 120.865  1.00  0.00     0.001 A 
ENDROOT
BRANCH   2  16
ATOM     16  C   UNL     1     105.607  98.830 121.111  1.00  0.00     0.125 C 
ATOM     17  O   UNL     1     106.464 100.987 122.826  1.00  0.00    -0.379 OA
ATOM     18  C   UNL     1     107.439 100.104 122.283  1.00  0.00     0.194 C 
ATOM     19  C   UNL     1     105.382 101.203 121.923  1.00  0.00     0.162 C 
ATOM     20  C   UNL     1     106.846  98.725 122.009  1.00  0.00     0.163 C 
ATOM     21  C   UNL     1     104.649  99.898 121.647  1.00  0.00     0.057 C 
BRANCH  20  22
ATOM     22  O   UNL     1     107.851  97.934 121.381  1.00  0.00    -0.389 OA
ATOM     23  H   UNL     1     108.477  98.542 120.950  1.00  0.00     0.211 HD
ENDBRANCH  20  22
ENDBRANCH   2  16
BRANCH   9  24
ATOM     24  C   UNL     1     104.156  92.434 117.683  1.00  0.00     0.073 C 
BRANCH  24  25
ATOM     25  C   UNL     1     104.636  93.139 116.434  1.00  0.00    -0.025 A 
ATOM     26  C   UNL     1     105.980  93.130 116.078  1.00  0.00     0.009 A 
ATOM     27  C   UNL     1     103.751  93.814 115.609  1.00  0.00     0.117 A 
ATOM     28  C   UNL     1     106.392  93.788 114.923  1.00  0.00     0.049 A 
ATOM     29  N   UNL     1     104.113  94.463 114.480  1.00  0.00    -0.237 NA
ATOM     30  C   UNL     1     105.428  94.433 114.166  1.00  0.00     0.153 A 
BRANCH  30  31
ATOM     31  N   UNL     1     105.832  95.090 113.014  1.00  0.00    -0.223 N 
ATOM     32  N   UNL     1     106.182  96.387 113.056  1.00  0.00    -0.175 NA
ATOM     33  C   UNL     1     105.921  94.535 111.772  1.00  0.00     0.117 A 
ATOM     34  C   UNL     1     106.502  96.656 111.788  1.00  0.00     0.135 A 
ATOM     35  C   UNL     1     106.358  95.539 110.943  1.00  0.00     0.042 A 
ENDBRANCH  30  31
ENDBRANCH  24  25
ENDBRANCH   9  24
TORSDOF 5
ENDMDL
MODEL 11
REMARK VINA RESULT:      -7.4     11.428     13.996
REMARK SMILES O=c1c2cc(Cc3ccc(-n4cccn4)nc3)c3ccccc3c2ncn1[C@H]1CCOC[C@@H]1O
REMARK SMILES IDX 1 1 27 2 25 3 2 4 3 5 26 6 24 7 23 8 5 9 4 10 18 11 22 12
REMARK SMILES IDX 19 13 21 14 20 15 28 16 31 17 32 18 30 19 33 20 29 21 34 22
REMARK SMILES IDX 6 24 7 25 8 26 17 27 9 28 16 29 10 30 11 31 15 32 12 33
REMARK SMILES IDX 14 34 13 35
REMARK H PARENT 34 23
ROOT
ATOM      1  O   UNL     1     105.762  96.017 116.486  1.00  0.00    -0.269 OA
ATOM      2  N   UNL     1     105.115  94.020 115.480  1.00  0.00    -0.293 N 
ATOM      3  N   UNL     1     103.744  92.467 116.642  1.00  0.00    -0.237 NA
ATOM      4  C   UNL     1     105.160  94.948 116.521  1.00  0.00     0.261 A 
ATOM      5  C   UNL     1     104.405  94.558 117.736  1.00  0.00     0.067 A 
ATOM      6  C   UNL     1     104.412  92.838 115.600  1.00  0.00     0.203 A 
ATOM      7  C   UNL     1     103.722  93.332 117.757  1.00  0.00     0.085 A 
ATOM      8  C   UNL     1     102.999  92.955 118.919  1.00  0.00     0.009 A 
ATOM      9  C   UNL     1     103.673  95.045 119.981  1.00  0.00    -0.035 A 
ATOM     10  C   UNL     1     104.382  95.411 118.840  1.00  0.00     0.020 A 
ATOM     11  C   UNL     1     102.981  93.828 120.037  1.00  0.00    -0.013 A 
ATOM     12  C   UNL     1     102.288  91.739 119.019  1.00  0.00     0.011 A 
ATOM     13  C   UNL     1     102.269  93.469 121.194  1.00  0.00     0.009 A 
ATOM     14  C   UNL     1     101.586  91.398 120.176  1.00  0.00     0.001 A 
ATOM     15  C   UNL     1     101.577  92.263 121.263  1.00  0.00     0.001 A 
ENDROOT
BRANCH   2  16
ATOM     16  C   UNL     1     105.818  94.302 114.250  1.00  0.00     0.125 C 
ATOM     17  O   UNL     1     106.759  93.309 111.709  1.00  0.00    -0.379 OA
ATOM     18  C   UNL     1     105.691  94.249 111.733  1.00  0.00     0.194 C 
ATOM     19  C   UNL     1     107.699  93.545 112.756  1.00  0.00     0.162 C 
ATOM     20  C   UNL     1     104.897  94.152 113.032  1.00  0.00     0.163 C 
ATOM     21  C   UNL     1     107.034  93.381 114.115  1.00  0.00     0.057 C 
BRANCH  20  22
ATOM     22  O   UNL     1     103.914  95.183 113.022  1.00  0.00    -0.389 OA
ATOM     23  H   UNL     1     103.048  94.766 113.169  1.00  0.00     0.211 HD
ENDBRANCH  20  22
ENDBRANCH   2  16
BRANCH   9  24
ATOM     24  C   UNL     1     103.691  96.007 121.130  1.00  0.00     0.073 C 
BRANCH  24  25
ATOM     25  C   UNL     1     104.075  97.416 120.736  1.00  0.00    -0.025 A 
ATOM     26  C   UNL     1     103.152  98.270 120.143  1.00  0.00     0.009 A 
ATOM     27  C   UNL     1     105.356  97.897 120.956  1.00  0.00     0.117 A 
ATOM     28  C   UNL     1     103.534  99.561 119.791  1.00  0.00     0.049 A 
ATOM     29  N   UNL     1     105.763  99.143 120.628  1.00  0.00    -0.237 NA
ATOM     30  C   UNL     1     104.839  99.945 120.053  1.00  0.00     0.153 A 
BRANCH  30  31
ATOM     31  N   UNL     1     105.225 101.231 119.705  1.00  0.00    -0.223 N 
ATOM     32  N   UNL     1     106.234 101.837 120.352  1.00  0.00    -0.175 NA
ATOM     33  C   UNL     1     104.662 101.991 118.724  1.00  0.00     0.117 A 
ATOM     34  C   UNL     1     106.308 103.028 119.751  1.00  0.00     0.135 A 
ATOM     35  C   UNL     1     105.352 103.179 118.728  1.00  0.00     0.042 A 
ENDBRANCH  30  31
ENDBRANCH  24  25
ENDBRANCH   9  24
TORSDOF 5
ENDMDL
MODEL 12
REMARK VINA RESULT:      -7.4      3.102      8.437
REMARK SMILES O=c1c2cc(Cc3ccc(-n4cccn4)nc3)c3ccccc3c2ncn1[C@H]1CCOC[C@@H]1O
REMARK SMILES IDX 1 1 27 2 25 3 2 4 3 5 26 6 24 7 23 8 5 9 4 10 18 11 22 12
REMARK SMILES IDX 19 13 21 14 20 15 28 16 31 17 32 18 30 19 33 20 29 21 34 22
REMARK SMILES IDX 6 24 7 25 8 26 17 27 9 28 16 29 10 30 11 31 15 32 12 33
REMARK SMILES IDX 14 34 13 35
REMARK H PARENT 34 23
ROOT
ATOM      1  O   UNL     1     117.765 100.484 117.987  1.00  0.00    -0.269 OA
ATOM      2  N   UNL     1     117.345 102.674 118.656  1.00  0.00    -0.293 N 
ATOM      3  N   UNL     1     117.784 103.364 120.887  1.00  0.00    -0.237 NA
ATOM      4  C   UNL     1     117.766 101.357 118.850  1.00  0.00     0.261 A 
ATOM      5  C   UNL     1     118.237 101.049 120.221  1.00  0.00     0.067 A 
ATOM      6  C   UNL     1     117.380 103.597 119.682  1.00  0.00     0.203 A 
ATOM      7  C   UNL     1     118.231 102.061 121.194  1.00  0.00     0.085 A 
ATOM      8  C   UNL     1     118.682 101.769 122.508  1.00  0.00     0.009 A 
ATOM      9  C   UNL     1     119.123  99.472 121.815  1.00  0.00    -0.035 A 
ATOM     10  C   UNL     1     118.680  99.762 120.527  1.00  0.00     0.020 A 
ATOM     11  C   UNL     1     119.130 100.457 122.811  1.00  0.00    -0.013 A 
ATOM     12  C   UNL     1     118.706 102.731 123.541  1.00  0.00     0.011 A 
ATOM     13  C   UNL     1     119.580 100.153 124.107  1.00  0.00     0.009 A 
ATOM     14  C   UNL     1     119.156 102.412 124.824  1.00  0.00     0.001 A 
ATOM     15  C   UNL     1     119.592 101.124 125.106  1.00  0.00     0.001 A 
ENDROOT
BRANCH   2  16
ATOM     16  C   UNL     1     116.866 103.080 117.355  1.00  0.00     0.125 C 
ATOM     17  O   UNL     1     115.697 105.167 115.741  1.00  0.00    -0.379 OA
ATOM     18  C   UNL     1     117.055 104.800 115.523  1.00  0.00     0.194 C 
ATOM     19  C   UNL     1     114.898 104.047 116.118  1.00  0.00     0.162 C 
ATOM     20  C   UNL     1     117.690 104.245 116.794  1.00  0.00     0.163 C 
ATOM     21  C   UNL     1     115.385 103.464 117.436  1.00  0.00     0.057 C 
BRANCH  20  22
ATOM     22  O   UNL     1     119.008 103.813 116.471  1.00  0.00    -0.389 OA
ATOM     23  H   UNL     1     119.449 103.564 117.302  1.00  0.00     0.211 HD
ENDBRANCH  20  22
ENDBRANCH   2  16
BRANCH   9  24
ATOM     24  C   UNL     1     119.584  98.070 122.076  1.00  0.00     0.073 C 
BRANCH  24  25
ATOM     25  C   UNL     1     118.453  97.090 122.295  1.00  0.00    -0.025 A 
ATOM     26  C   UNL     1     118.048  96.226 121.284  1.00  0.00     0.009 A 
ATOM     27  C   UNL     1     117.789  97.025 123.509  1.00  0.00     0.117 A 
ATOM     28  C   UNL     1     117.005  95.336 121.514  1.00  0.00     0.049 A 
ATOM     29  N   UNL     1     116.771  96.173 123.770  1.00  0.00    -0.237 NA
ATOM     30  C   UNL     1     116.405  95.348 122.763  1.00  0.00     0.153 A 
BRANCH  30  31
ATOM     31  N   UNL     1     115.365  94.463 122.998  1.00  0.00    -0.223 N 
ATOM     32  N   UNL     1     114.545  94.639 124.048  1.00  0.00    -0.175 NA
ATOM     33  C   UNL     1     115.064  93.370 122.241  1.00  0.00     0.117 A 
ATOM     34  C   UNL     1     113.694  93.615 123.944  1.00  0.00     0.135 A 
ATOM     35  C   UNL     1     113.970  92.791 122.836  1.00  0.00     0.042 A 
ENDBRANCH  30  31
ENDBRANCH  24  25
ENDBRANCH   9  24
TORSDOF 5
ENDMDL
MODEL 13
REMARK VINA RESULT:      -7.4      9.969     13.440
REMARK SMILES O=c1c2cc(Cc3ccc(-n4cccn4)nc3)c3ccccc3c2ncn1[C@H]1CCOC[C@@H]1O
REMARK SMILES IDX 1 1 27 2 25 3 2 4 3 5 26 6 24 7 23 8 5 9 4 10 18 11 22 12
REMARK SMILES IDX 19 13 21 14 20 15 28 16 31 17 32 18 30 19 33 20 29 21 34 22
REMARK SMILES IDX 6 24 7 25 8 26 17 27 9 28 16 29 10 30 11 31 15 32 12 33
REMARK SMILES IDX 14 34 13 35
REMARK H PARENT 34 23
ROOT
ATOM      1  O   UNL     1     105.477  96.998 115.331  1.00  0.00    -0.269 OA
ATOM      2  N   UNL     1     105.580  94.681 115.128  1.00  0.00    -0.293 N 
ATOM      3  N   UNL     1     104.629  93.277 116.791  1.00  0.00    -0.237 NA
ATOM      4  C   UNL     1     105.228  95.875 115.760  1.00  0.00     0.261 A 
ATOM      5  C   UNL     1     104.502  95.712 117.041  1.00  0.00     0.067 A 
ATOM      6  C   UNL     1     105.260  93.456 115.679  1.00  0.00     0.203 A 
ATOM      7  C   UNL     1     104.226  94.419 117.515  1.00  0.00     0.085 A 
ATOM      8  C   UNL     1     103.531  94.259 118.743  1.00  0.00     0.009 A 
ATOM      9  C   UNL     1     103.420  96.686 118.963  1.00  0.00    -0.035 A 
ATOM     10  C   UNL     1     104.102  96.839 117.759  1.00  0.00     0.020 A 
ATOM     11  C   UNL     1     103.129  95.411 119.466  1.00  0.00    -0.013 A 
ATOM     12  C   UNL     1     103.217  92.994 119.286  1.00  0.00     0.011 A 
ATOM     13  C   UNL     1     102.440  95.269 120.683  1.00  0.00     0.009 A 
ATOM     14  C   UNL     1     102.532  92.870 120.497  1.00  0.00     0.001 A 
ATOM     15  C   UNL     1     102.144  94.007 121.194  1.00  0.00     0.001 A 
ENDROOT
BRANCH   2  16
ATOM     16  C   UNL     1     106.291  94.728 113.872  1.00  0.00     0.125 C 
ATOM     17  O   UNL     1     106.969  93.376 111.414  1.00  0.00    -0.379 OA
ATOM     18  C   UNL     1     106.093  94.498 111.370  1.00  0.00     0.194 C 
ATOM     19  C   UNL     1     107.962  93.517 112.428  1.00  0.00     0.162 C 
ATOM     20  C   UNL     1     105.328  94.655 112.681  1.00  0.00     0.163 C 
ATOM     21  C   UNL     1     107.313  93.589 113.802  1.00  0.00     0.057 C 
BRANCH  20  22
ATOM     22  O   UNL     1     104.552  95.846 112.594  1.00  0.00    -0.389 OA
ATOM     23  H   UNL     1     105.151  96.599 112.739  1.00  0.00     0.211 HD
ENDBRANCH  20  22
ENDBRANCH   2  16
BRANCH   9  24
ATOM     24  C   UNL     1     103.022  97.938 119.683  1.00  0.00     0.073 C 
BRANCH  24  25
ATOM     25  C   UNL     1     104.135  98.956 119.793  1.00  0.00    -0.025 A 
ATOM     26  C   UNL     1     105.284  98.682 120.527  1.00  0.00     0.009 A 
ATOM     27  C   UNL     1     104.043 100.188 119.167  1.00  0.00     0.117 A 
ATOM     28  C   UNL     1     106.292  99.638 120.612  1.00  0.00     0.049 A 
ATOM     29  N   UNL     1     105.001 101.141 119.226  1.00  0.00    -0.237 NA
ATOM     30  C   UNL     1     106.104 100.840 119.949  1.00  0.00     0.153 A 
BRANCH  30  31
ATOM     31  N   UNL     1     107.105 101.795 120.029  1.00  0.00    -0.223 N 
ATOM     32  N   UNL     1     106.803 103.104 119.982  1.00  0.00    -0.175 NA
ATOM     33  C   UNL     1     108.438 101.541 120.158  1.00  0.00     0.117 A 
ATOM     34  C   UNL     1     107.996 103.694 120.086  1.00  0.00     0.135 A 
ATOM     35  C   UNL     1     109.052 102.769 120.198  1.00  0.00     0.042 A 
ENDBRANCH  30  31
ENDBRANCH  24  25
ENDBRANCH   9  24
TORSDOF 5
ENDMDL
MODEL 14
REMARK VINA RESULT:      -7.3      4.084      6.960
REMARK SMILES O=c1c2cc(Cc3ccc(-n4cccn4)nc3)c3ccccc3c2ncn1[C@H]1CCOC[C@@H]1O
REMARK SMILES IDX 1 1 27 2 25 3 2 4 3 5 26 6 24 7 23 8 5 9 4 10 18 11 22 12
REMARK SMILES IDX 19 13 21 14 20 15 28 16 31 17 32 18 30 19 33 20 29 21 34 22
REMARK SMILES IDX 6 24 7 25 8 26 17 27 9 28 16 29 10 30 11 31 15 32 12 33
REMARK SMILES IDX 14 34 13 35
REMARK H PARENT 34 23
ROOT
ATOM      1  O   UNL     1     119.006  99.221 122.189  1.00  0.00    -0.269 OA
ATOM      2  N   UNL     1     119.181  96.937 121.778  1.00  0.00    -0.293 N 
ATOM      3  N   UNL     1     117.499  95.439 122.533  1.00  0.00    -0.237 NA
ATOM      4  C   UNL     1     118.563  98.081 122.286  1.00  0.00     0.261 A 
ATOM      5  C   UNL     1     117.281  97.837 122.987  1.00  0.00     0.067 A 
ATOM      6  C   UNL     1     118.614  95.687 121.930  1.00  0.00     0.203 A 
ATOM      7  C   UNL     1     116.790  96.525 123.088  1.00  0.00     0.085 A 
ATOM      8  C   UNL     1     115.562  96.288 123.759  1.00  0.00     0.009 A 
ATOM      9  C   UNL     1     115.372  98.681 124.195  1.00  0.00    -0.035 A 
ATOM     10  C   UNL     1     116.577  98.909 123.537  1.00  0.00     0.020 A 
ATOM     11  C   UNL     1     114.854  97.385 124.315  1.00  0.00    -0.013 A 
ATOM     12  C   UNL     1     115.003  94.999 123.902  1.00  0.00     0.011 A 
ATOM     13  C   UNL     1     113.636  97.166 124.982  1.00  0.00     0.009 A 
ATOM     14  C   UNL     1     113.792  94.799 124.568  1.00  0.00     0.001 A 
ATOM     15  C   UNL     1     113.110  95.882 125.107  1.00  0.00     0.001 A 
ENDROOT
BRANCH   2  16
ATOM     16  C   UNL     1     120.437  97.063 121.076  1.00  0.00     0.125 C 
ATOM     17  O   UNL     1     122.624  95.724 119.752  1.00  0.00    -0.379 OA
ATOM     18  C   UNL     1     121.704  96.484 118.976  1.00  0.00     0.194 C 
ATOM     19  C   UNL     1     122.837  96.302 121.038  1.00  0.00     0.162 C 
ATOM     20  C   UNL     1     120.331  96.537 119.639  1.00  0.00     0.163 C 
ATOM     21  C   UNL     1     121.541  96.321 121.835  1.00  0.00     0.057 C 
BRANCH  20  22
ATOM     22  O   UNL     1     119.501  97.390 118.857  1.00  0.00    -0.389 OA
ATOM     23  H   UNL     1     119.920  97.491 117.985  1.00  0.00     0.211 HD
ENDBRANCH  20  22
ENDBRANCH   2  16
BRANCH   9  24
ATOM     24  C   UNL     1     114.670  99.877 124.762  1.00  0.00     0.073 C 
BRANCH  24  25
ATOM     25  C   UNL     1     113.573 100.416 123.871  1.00  0.00    -0.025 A 
ATOM     26  C   UNL     1     112.294 100.644 124.368  1.00  0.00     0.009 A 
ATOM     27  C   UNL     1     113.810 100.699 122.536  1.00  0.00     0.117 A 
ATOM     28  C   UNL     1     111.305 101.140 123.524  1.00  0.00     0.049 A 
ATOM     29  N   UNL     1     112.875 101.182 121.687  1.00  0.00    -0.237 NA
ATOM     30  C   UNL     1     111.644 101.391 122.205  1.00  0.00     0.153 A 
BRANCH  30  31
ATOM     31  N   UNL     1     110.663 101.886 121.360  1.00  0.00    -0.223 N 
ATOM     32  N   UNL     1     109.705 101.075 120.879  1.00  0.00    -0.175 NA
ATOM     33  C   UNL     1     110.554 103.178 120.938  1.00  0.00     0.117 A 
ATOM     34  C   UNL     1     108.966 101.893 120.125  1.00  0.00     0.135 A 
ATOM     35  C   UNL     1     109.448 103.215 120.124  1.00  0.00     0.042 A 
ENDBRANCH  30  31
ENDBRANCH  24  25
ENDBRANCH   9  24
TORSDOF 5
ENDMDL
MODEL 15
REMARK VINA RESULT:      -7.3      3.702      6.836
REMARK SMILES O=c1c2cc(Cc3ccc(-n4cccn4)nc3)c3ccccc3c2ncn1[C@H]1CCOC[C@@H]1O
REMARK SMILES IDX 1 1 27 2 25 3 2 4 3 5 26 6 24 7 23 8 5 9 4 10 18 11 22 12
REMARK SMILES IDX 19 13 21 14 20 15 28 16 31 17 32 18 30 19 33 20 29 21 34 22
REMARK SMILES IDX 6 24 7 25 8 26 17 27 9 28 16 29 10 30 11 31 15 32 12 33
REMARK SMILES IDX 14 34 13 35
REMARK H PARENT 34 23
ROOT
ATOM      1  O   UNL     1     117.458  98.841 119.314  1.00  0.00    -0.269 OA
ATOM      2  N   UNL     1     118.823  98.523 121.172  1.00  0.00    -0.293 N 
ATOM      3  N   UNL     1     119.214 100.295 122.705  1.00  0.00    -0.237 NA
ATOM      4  C   UNL     1     117.991  99.267 120.334  1.00  0.00     0.261 A 
ATOM      5  C   UNL     1     117.773 100.670 120.758  1.00  0.00     0.067 A 
ATOM      6  C   UNL     1     119.383  99.078 122.305  1.00  0.00     0.203 A 
ATOM      7  C   UNL     1     118.391 101.138 121.928  1.00  0.00     0.085 A 
ATOM      8  C   UNL     1     118.184 102.482 122.337  1.00  0.00     0.009 A 
ATOM      9  C   UNL     1     116.754 102.824 120.391  1.00  0.00    -0.035 A 
ATOM     10  C   UNL     1     116.959 101.506 119.993  1.00  0.00     0.020 A 
ATOM     11  C   UNL     1     117.355 103.325 121.553  1.00  0.00    -0.013 A 
ATOM     12  C   UNL     1     118.770 103.028 123.501  1.00  0.00     0.011 A 
ATOM     13  C   UNL     1     117.141 104.657 121.945  1.00  0.00     0.009 A 
ATOM     14  C   UNL     1     118.547 104.354 123.876  1.00  0.00     0.001 A 
ATOM     15  C   UNL     1     117.733 105.167 123.098  1.00  0.00     0.001 A 
ENDROOT
BRANCH   2  16
ATOM     16  C   UNL     1     119.101  97.142 120.850  1.00  0.00     0.125 C 
ATOM     17  O   UNL     1     119.880  94.535 121.809  1.00  0.00    -0.379 OA
ATOM     18  C   UNL     1     118.542  94.740 121.370  1.00  0.00     0.194 C 
ATOM     19  C   UNL     1     120.812  95.306 121.053  1.00  0.00     0.162 C 
ATOM     20  C   UNL     1     118.118  96.195 121.549  1.00  0.00     0.163 C 
ATOM     21  C   UNL     1     120.542  96.793 121.232  1.00  0.00     0.057 C 
BRANCH  20  22
ATOM     22  O   UNL     1     116.812  96.340 121.000  1.00  0.00    -0.389 OA
ATOM     23  H   UNL     1     116.653  95.582 120.412  1.00  0.00     0.211 HD
ENDBRANCH  20  22
ENDBRANCH   2  16
BRANCH   9  24
ATOM     24  C   UNL     1     115.870 103.666 119.523  1.00  0.00     0.073 C 
BRANCH  24  25
ATOM     25  C   UNL     1     114.395 103.383 119.702  1.00  0.00    -0.025 A 
ATOM     26  C   UNL     1     113.816 103.375 120.966  1.00  0.00     0.009 A 
ATOM     27  C   UNL     1     113.578 103.125 118.613  1.00  0.00     0.117 A 
ATOM     28  C   UNL     1     112.456 103.111 121.100  1.00  0.00     0.049 A 
ATOM     29  N   UNL     1     112.255 102.865 118.704  1.00  0.00    -0.237 NA
ATOM     30  C   UNL     1     111.727 102.865 119.948  1.00  0.00     0.153 A 
BRANCH  30  31
ATOM     31  N   UNL     1     110.371 102.602 120.076  1.00  0.00    -0.223 N 
ATOM     32  N   UNL     1     109.477 103.605 120.050  1.00  0.00    -0.175 NA
ATOM     33  C   UNL     1     109.812 101.369 120.233  1.00  0.00     0.117 A 
ATOM     34  C   UNL     1     108.310 102.974 120.197  1.00  0.00     0.135 A 
ATOM     35  C   UNL     1     108.458 101.579 120.316  1.00  0.00     0.042 A 
ENDBRANCH  30  31
ENDBRANCH  24  25
ENDBRANCH   9  24
TORSDOF 5
ENDMDL
