MODEL 1
REMARK VINA RESULT:      -8.6      0.000      0.000
REMARK SMILES NC(=O)[C@@H](NC(=O)c1cccc2ccccc12)C1c2ccccc2-c2ccccc21
REMARK SMILES IDX 4 1 2 2 3 3 1 4 5 7 6 8 7 9 8 11 17 12 9 13 12 14 16 15
REMARK SMILES IDX 10 16 11 17 13 18 15 19 14 20 18 21 19 22 30 23 24 24 20 25
REMARK SMILES IDX 25 26 29 27 23 28 21 29 26 30 28 31 22 32 27 33
REMARK H PARENT 1 5 1 6 5 10
ROOT
ATOM      1  C   UNL     1     106.508  93.277 113.285  1.00  0.00     0.183 C 
ENDROOT
BRANCH   1   2
ATOM      2  C   UNL     1     107.909  93.352 112.701  1.00  0.00     0.241 C 
ATOM      3  O   UNL     1     108.934  93.306 113.378  1.00  0.00    -0.273 OA
ATOM      4  N   UNL     1     107.913  93.435 111.325  1.00  0.00    -0.368 N 
ATOM      5  H   UNL     1     107.060  93.430 110.774  1.00  0.00     0.159 HD
ATOM      6  H   UNL     1     108.785  93.484 110.809  1.00  0.00     0.159 HD
ENDBRANCH   1   2
BRANCH   1   7
ATOM      7  N   UNL     1     106.487  94.030 114.511  1.00  0.00    -0.339 N 
ATOM      8  C   UNL     1     106.088  93.478 115.722  1.00  0.00     0.252 C 
ATOM      9  O   UNL     1     105.719  92.317 115.873  1.00  0.00    -0.269 OA
ATOM     10  H   UNL     1     106.764  95.007 114.484  1.00  0.00     0.164 HD
BRANCH   8  11
ATOM     11  C   UNL     1     106.099  94.395 116.892  1.00  0.00     0.047 A 
ATOM     12  C   UNL     1     105.146  95.414 117.060  1.00  0.00    -0.006 A 
ATOM     13  C   UNL     1     107.109  94.203 117.834  1.00  0.00     0.014 A 
ATOM     14  C   UNL     1     105.220  96.249 118.200  1.00  0.00    -0.018 A 
ATOM     15  C   UNL     1     104.122  95.622 116.122  1.00  0.00     0.009 A 
ATOM     16  C   UNL     1     107.182  95.024 118.955  1.00  0.00     0.001 A 
ATOM     17  C   UNL     1     106.245  96.040 119.138  1.00  0.00     0.009 A 
ATOM     18  C   UNL     1     104.268  97.267 118.369  1.00  0.00     0.009 A 
ATOM     19  C   UNL     1     103.185  96.639 116.305  1.00  0.00     0.001 A 
ATOM     20  C   UNL     1     103.259  97.460 117.426  1.00  0.00     0.001 A 
ENDBRANCH   8  11
ENDBRANCH   1   7
BRANCH   1  21
ATOM     21  C   UNL     1     105.479  93.814 112.298  1.00  0.00     0.082 C 
ATOM     22  C   UNL     1     104.051  93.450 112.683  1.00  0.00    -0.030 A 
ATOM     23  C   UNL     1     105.413  95.335 112.288  1.00  0.00    -0.030 A 
ATOM     24  C   UNL     1     103.281  94.618 112.880  1.00  0.00    -0.014 A 
ATOM     25  C   UNL     1     103.503  92.190 112.857  1.00  0.00     0.005 A 
ATOM     26  C   UNL     1     104.116  95.775 112.638  1.00  0.00    -0.014 A 
ATOM     27  C   UNL     1     106.427  96.237 112.009  1.00  0.00     0.005 A 
ATOM     28  C   UNL     1     101.948  94.530 113.246  1.00  0.00     0.009 A 
ATOM     29  C   UNL     1     102.160  92.101 113.224  1.00  0.00     0.000 A 
ATOM     30  C   UNL     1     103.824  97.127 112.702  1.00  0.00     0.009 A 
ATOM     31  C   UNL     1     106.131  97.599 112.073  1.00  0.00     0.000 A 
ATOM     32  C   UNL     1     101.389  93.259 113.416  1.00  0.00     0.001 A 
ATOM     33  C   UNL     1     104.843  98.041 112.415  1.00  0.00     0.001 A 
ENDBRANCH   1  21
TORSDOF 4
ENDMDL
MODEL 2
REMARK VINA RESULT:      -8.1      2.032      5.164
REMARK SMILES NC(=O)[C@@H](NC(=O)c1cccc2ccccc12)C1c2ccccc2-c2ccccc21
REMARK SMILES IDX 4 1 2 2 3 3 1 4 5 7 6 8 7 9 8 11 17 12 9 13 12 14 16 15
REMARK SMILES IDX 10 16 11 17 13 18 15 19 14 20 18 21 19 22 30 23 24 24 20 25
REMARK SMILES IDX 25 26 29 27 23 28 21 29 26 30 28 31 22 32 27 33
REMARK H PARENT 1 5 1 6 5 10
ROOT
ATOM      1  C   UNL     1     107.099  94.027 114.221  1.00  0.00     0.183 C 
ENDROOT
BRANCH   1   2
ATOM      2  C   UNL     1     107.937  93.514 113.061  1.00  0.00     0.241 C 
ATOM      3  O   UNL     1     107.624  93.650 111.881  1.00  0.00    -0.273 OA
ATOM      4  N   UNL     1     109.110  92.917 113.471  1.00  0.00    -0.368 N 
ATOM      5  H   UNL     1     109.378  92.849 114.447  1.00  0.00     0.159 HD
ATOM      6  H   UNL     1     109.765  92.539 112.794  1.00  0.00     0.159 HD
ENDBRANCH   1   2
BRANCH   1   7
ATOM      7  N   UNL     1     105.923  94.659 113.685  1.00  0.00    -0.339 N 
ATOM      8  C   UNL     1     105.421  95.854 114.186  1.00  0.00     0.252 C 
ATOM      9  O   UNL     1     105.915  96.483 115.117  1.00  0.00    -0.269 OA
ATOM     10  H   UNL     1     105.435  94.205 112.918  1.00  0.00     0.164 HD
BRANCH   8  11
ATOM     11  C   UNL     1     104.183  96.364 113.539  1.00  0.00     0.047 A 
ATOM     12  C   UNL     1     102.903  96.108 114.058  1.00  0.00    -0.006 A 
ATOM     13  C   UNL     1     104.344  97.119 112.378  1.00  0.00     0.014 A 
ATOM     14  C   UNL     1     101.770  96.627 113.387  1.00  0.00    -0.018 A 
ATOM     15  C   UNL     1     102.722  95.351 115.226  1.00  0.00     0.009 A 
ATOM     16  C   UNL     1     103.230  97.628 111.718  1.00  0.00     0.001 A 
ATOM     17  C   UNL     1     101.951  97.385 112.218  1.00  0.00     0.009 A 
ATOM     18  C   UNL     1     100.489  96.372 113.904  1.00  0.00     0.009 A 
ATOM     19  C   UNL     1     101.442  95.107 115.724  1.00  0.00     0.001 A 
ATOM     20  C   UNL     1     100.329  95.616 115.065  1.00  0.00     0.001 A 
ENDBRANCH   8  11
ENDBRANCH   1   7
BRANCH   1  21
ATOM     21  C   UNL     1     106.725  92.890 115.164  1.00  0.00     0.082 C 
ATOM     22  C   UNL     1     106.462  93.370 116.585  1.00  0.00    -0.030 A 
ATOM     23  C   UNL     1     105.391  92.247 114.809  1.00  0.00    -0.030 A 
ATOM     24  C   UNL     1     105.143  93.052 116.978  1.00  0.00    -0.014 A 
ATOM     25  C   UNL     1     107.322  94.044 117.437  1.00  0.00     0.005 A 
ATOM     26  C   UNL     1     104.485  92.363 115.888  1.00  0.00    -0.014 A 
ATOM     27  C   UNL     1     105.023  91.633 113.623  1.00  0.00     0.005 A 
ATOM     28  C   UNL     1     104.677  93.401 118.234  1.00  0.00     0.009 A 
ATOM     29  C   UNL     1     106.853  94.395 118.704  1.00  0.00     0.000 A 
ATOM     30  C   UNL     1     103.201  91.853 115.787  1.00  0.00     0.009 A 
ATOM     31  C   UNL     1     103.729  91.120 113.523  1.00  0.00     0.000 A 
ATOM     32  C   UNL     1     105.544  94.076 119.100  1.00  0.00     0.001 A 
ATOM     33  C   UNL     1     102.827  91.228 114.594  1.00  0.00     0.001 A 
ENDBRANCH   1  21
TORSDOF 4
ENDMDL
MODEL 3
REMARK VINA RESULT:      -8.0      2.393      4.747
REMARK SMILES NC(=O)[C@@H](NC(=O)c1cccc2ccccc12)C1c2ccccc2-c2ccccc21
REMARK SMILES IDX 4 1 2 2 3 3 1 4 5 7 6 8 7 9 8 11 17 12 9 13 12 14 16 15
REMARK SMILES IDX 10 16 11 17 13 18 15 19 14 20 18 21 19 22 30 23 24 24 20 25
REMARK SMILES IDX 25 26 29 27 23 28 21 29 26 30 28 31 22 32 27 33
REMARK H PARENT 1 5 1 6 5 10
ROOT
ATOM      1  C   UNL     1     103.309  96.224 112.769  1.00  0.00     0.183 C 
ENDROOT
BRANCH   1   2
ATOM      2  C   UNL     1     101.890  96.728 112.562  1.00  0.00     0.241 C 
ATOM      3  O   UNL     1     101.117  96.988 113.482  1.00  0.00    -0.273 OA
ATOM      4  N   UNL     1     101.572  96.902 111.232  1.00  0.00    -0.368 N 
ATOM      5  H   UNL     1     102.233  96.723 110.483  1.00  0.00     0.159 HD
ATOM      6  H   UNL     1     100.656  97.242 110.956  1.00  0.00     0.159 HD
ENDBRANCH   1   2
BRANCH   1   7
ATOM      7  N   UNL     1     103.620  96.310 114.171  1.00  0.00    -0.339 N 
ATOM      8  C   UNL     1     104.848  96.759 114.640  1.00  0.00     0.252 C 
ATOM      9  O   UNL     1     105.778  97.122 113.925  1.00  0.00    -0.269 OA
ATOM     10  H   UNL     1     102.915  96.017 114.842  1.00  0.00     0.164 HD
BRANCH   8  11
ATOM     11  C   UNL     1     105.022  96.764 116.116  1.00  0.00     0.047 A 
ATOM     12  C   UNL     1     105.683  95.731 116.800  1.00  0.00    -0.006 A 
ATOM     13  C   UNL     1     104.492  97.852 116.809  1.00  0.00     0.014 A 
ATOM     14  C   UNL     1     105.810  95.804 118.208  1.00  0.00    -0.018 A 
ATOM     15  C   UNL     1     106.223  94.628 116.119  1.00  0.00     0.009 A 
ATOM     16  C   UNL     1     104.616  97.924 118.193  1.00  0.00     0.001 A 
ATOM     17  C   UNL     1     105.270  96.908 118.889  1.00  0.00     0.009 A 
ATOM     18  C   UNL     1     106.472  94.772 118.892  1.00  0.00     0.009 A 
ATOM     19  C   UNL     1     106.876  93.611 116.815  1.00  0.00     0.001 A 
ATOM     20  C   UNL     1     107.000  93.683 118.199  1.00  0.00     0.001 A 
ENDBRANCH   8  11
ENDBRANCH   1   7
BRANCH   1  21
ATOM     21  C   UNL     1     103.457  94.794 112.264  1.00  0.00     0.082 C 
ATOM     22  C   UNL     1     104.902  94.427 111.957  1.00  0.00    -0.030 A 
ATOM     23  C   UNL     1     103.098  93.758 113.321  1.00  0.00    -0.030 A 
ATOM     24  C   UNL     1     105.312  93.332 112.751  1.00  0.00    -0.014 A 
ATOM     25  C   UNL     1     105.770  95.031 111.063  1.00  0.00     0.005 A 
ATOM     26  C   UNL     1     104.205  92.922 113.588  1.00  0.00    -0.014 A 
ATOM     27  C   UNL     1     101.896  93.596 113.991  1.00  0.00     0.005 A 
ATOM     28  C   UNL     1     106.598  92.828 112.647  1.00  0.00     0.009 A 
ATOM     29  C   UNL     1     107.065  94.523 110.957  1.00  0.00     0.000 A 
ATOM     30  C   UNL     1     104.111  91.907 114.526  1.00  0.00     0.009 A 
ATOM     31  C   UNL     1     101.802  92.573 114.935  1.00  0.00     0.000 A 
ATOM     32  C   UNL     1     107.476  93.431 111.741  1.00  0.00     0.001 A 
ATOM     33  C   UNL     1     102.898  91.736 115.200  1.00  0.00     0.001 A 
ENDBRANCH   1  21
TORSDOF 4
ENDMDL
MODEL 4
REMARK VINA RESULT:      -8.0     13.719     16.548
REMARK SMILES NC(=O)[C@@H](NC(=O)c1cccc2ccccc12)C1c2ccccc2-c2ccccc21
REMARK SMILES IDX 4 1 2 2 3 3 1 4 5 7 6 8 7 9 8 11 17 12 9 13 12 14 16 15
REMARK SMILES IDX 10 16 11 17 13 18 15 19 14 20 18 21 19 22 30 23 24 24 20 25
REMARK SMILES IDX 25 26 29 27 23 28 21 29 26 30 28 31 22 32 27 33
REMARK H PARENT 1 5 1 6 5 10
ROOT
ATOM      1  C   UNL     1     118.710  98.455 118.878  1.00  0.00     0.183 C 
ENDROOT
BRANCH   1   2
ATOM      2  C   UNL     1     117.761  98.292 117.703  1.00  0.00     0.241 C 
ATOM      3  O   UNL     1     117.328  99.231 117.040  1.00  0.00    -0.273 OA
ATOM      4  N   UNL     1     117.468  96.972 117.430  1.00  0.00    -0.368 N 
ATOM      5  H   UNL     1     117.866  96.202 117.959  1.00  0.00     0.159 HD
ATOM      6  H   UNL     1     116.851  96.724 116.664  1.00  0.00     0.159 HD
ENDBRANCH   1   2
BRANCH   1   7
ATOM      7  N   UNL     1     118.266  99.573 119.667  1.00  0.00    -0.339 N 
ATOM      8  C   UNL     1     119.121 100.589 120.075  1.00  0.00     0.252 C 
ATOM      9  O   UNL     1     120.320 100.640 119.814  1.00  0.00    -0.269 OA
ATOM     10  H   UNL     1     117.289  99.612 119.946  1.00  0.00     0.164 HD
BRANCH   8  11
ATOM     11  C   UNL     1     118.512 101.660 120.907  1.00  0.00     0.047 A 
ATOM     12  C   UNL     1     118.621 101.679 122.307  1.00  0.00    -0.006 A 
ATOM     13  C   UNL     1     117.816 102.662 120.233  1.00  0.00     0.014 A 
ATOM     14  C   UNL     1     118.014 102.732 123.033  1.00  0.00    -0.018 A 
ATOM     15  C   UNL     1     119.318 100.679 123.003  1.00  0.00     0.009 A 
ATOM     16  C   UNL     1     117.219 103.697 120.946  1.00  0.00     0.001 A 
ATOM     17  C   UNL     1     117.317 103.733 122.336  1.00  0.00     0.009 A 
ATOM     18  C   UNL     1     118.123 102.753 124.433  1.00  0.00     0.009 A 
ATOM     19  C   UNL     1     119.415 100.715 124.394  1.00  0.00     0.001 A 
ATOM     20  C   UNL     1     118.818 101.750 125.107  1.00  0.00     0.001 A 
ENDBRANCH   8  11
ENDBRANCH   1   7
BRANCH   1  21
ATOM     21  C   UNL     1     118.762  97.183 119.716  1.00  0.00     0.082 C 
ATOM     22  C   UNL     1     120.185  96.772 120.069  1.00  0.00    -0.030 A 
ATOM     23  C   UNL     1     118.145  97.363 121.096  1.00  0.00    -0.030 A 
ATOM     24  C   UNL     1     120.354  96.738 121.472  1.00  0.00    -0.014 A 
ATOM     25  C   UNL     1     121.231  96.473 119.212  1.00  0.00     0.005 A 
ATOM     26  C   UNL     1     119.102  97.102 122.102  1.00  0.00    -0.014 A 
ATOM     27  C   UNL     1     116.852  97.744 121.415  1.00  0.00     0.005 A 
ATOM     28  C   UNL     1     121.576  96.396 122.027  1.00  0.00     0.009 A 
ATOM     29  C   UNL     1     122.462  96.127 119.771  1.00  0.00     0.000 A 
ATOM     30  C   UNL     1     118.765  97.211 123.441  1.00  0.00     0.009 A 
ATOM     31  C   UNL     1     116.513  97.854 122.765  1.00  0.00     0.000 A 
ATOM     32  C   UNL     1     122.633  96.088 121.165  1.00  0.00     0.001 A 
ATOM     33  C   UNL     1     117.460  97.590 123.768  1.00  0.00     0.001 A 
ENDBRANCH   1  21
TORSDOF 4
ENDMDL
MODEL 5
REMARK VINA RESULT:      -8.0     13.197     15.791
REMARK SMILES NC(=O)[C@@H](NC(=O)c1cccc2ccccc12)C1c2ccccc2-c2ccccc21
REMARK SMILES IDX 4 1 2 2 3 3 1 4 5 7 6 8 7 9 8 11 17 12 9 13 12 14 16 15
REMARK SMILES IDX 10 16 11 17 13 18 15 19 14 20 18 21 19 22 30 23 24 24 20 25
REMARK SMILES IDX 25 26 29 27 23 28 21 29 26 30 28 31 22 32 27 33
REMARK H PARENT 1 5 1 6 5 10
ROOT
ATOM      1  C   UNL     1     118.838  98.996 123.255  1.00  0.00     0.183 C 
ENDROOT
BRANCH   1   2
ATOM      2  C   UNL     1     118.227 100.317 123.691  1.00  0.00     0.241 C 
ATOM      3  O   UNL     1     117.053 100.447 124.030  1.00  0.00    -0.273 OA
ATOM      4  N   UNL     1     119.140 101.350 123.707  1.00  0.00    -0.368 N 
ATOM      5  H   UNL     1     120.117 101.221 123.465  1.00  0.00     0.159 HD
ATOM      6  H   UNL     1     118.862 102.286 123.986  1.00  0.00     0.159 HD
ENDBRANCH   1   2
BRANCH   1   7
ATOM      7  N   UNL     1     117.786  98.019 123.163  1.00  0.00    -0.339 N 
ATOM      8  C   UNL     1     117.648  96.977 124.071  1.00  0.00     0.252 C 
ATOM      9  O   UNL     1     118.393  96.782 125.028  1.00  0.00    -0.269 OA
ATOM     10  H   UNL     1     117.125  98.090 122.394  1.00  0.00     0.164 HD
BRANCH   8  11
ATOM     11  C   UNL     1     116.524  96.037 123.822  1.00  0.00     0.047 A 
ATOM     12  C   UNL     1     116.436  95.261 122.655  1.00  0.00    -0.006 A 
ATOM     13  C   UNL     1     115.541  95.955 124.808  1.00  0.00     0.014 A 
ATOM     14  C   UNL     1     115.335  94.387 122.488  1.00  0.00    -0.018 A 
ATOM     15  C   UNL     1     117.416  95.330 121.652  1.00  0.00     0.009 A 
ATOM     16  C   UNL     1     114.458  95.097 124.643  1.00  0.00     0.001 A 
ATOM     17  C   UNL     1     114.354  94.318 123.492  1.00  0.00     0.009 A 
ATOM     18  C   UNL     1     115.246  93.610 121.321  1.00  0.00     0.009 A 
ATOM     19  C   UNL     1     117.311  94.551 120.500  1.00  0.00     0.001 A 
ATOM     20  C   UNL     1     116.228  93.693 120.335  1.00  0.00     0.001 A 
ENDBRANCH   8  11
ENDBRANCH   1   7
BRANCH   1  21
ATOM     21  C   UNL     1     119.562  99.145 121.924  1.00  0.00     0.082 C 
ATOM     22  C   UNL     1     120.383  97.914 121.561  1.00  0.00    -0.030 A 
ATOM     23  C   UNL     1     118.607  99.233 120.742  1.00  0.00    -0.030 A 
ATOM     24  C   UNL     1     119.936  97.368 120.337  1.00  0.00    -0.014 A 
ATOM     25  C   UNL     1     121.419  97.332 122.272  1.00  0.00     0.005 A 
ATOM     26  C   UNL     1     118.846  98.176 119.834  1.00  0.00    -0.014 A 
ATOM     27  C   UNL     1     117.605 100.163 120.515  1.00  0.00     0.005 A 
ATOM     28  C   UNL     1     120.534  96.234 119.811  1.00  0.00     0.009 A 
ATOM     29  C   UNL     1     122.021  96.191 121.742  1.00  0.00     0.000 A 
ATOM     30  C   UNL     1     118.086  98.051 118.683  1.00  0.00     0.009 A 
ATOM     31  C   UNL     1     116.840 100.036 119.354  1.00  0.00     0.000 A 
ATOM     32  C   UNL     1     121.584  95.647 120.523  1.00  0.00     0.001 A 
ATOM     33  C   UNL     1     117.078  98.990 118.447  1.00  0.00     0.001 A 
ENDBRANCH   1  21
TORSDOF 4
ENDMDL
MODEL 6
REMARK VINA RESULT:      -7.7      1.772      2.372
REMARK SMILES NC(=O)[C@@H](NC(=O)c1cccc2ccccc12)C1c2ccccc2-c2ccccc21
REMARK SMILES IDX 4 1 2 2 3 3 1 4 5 7 6 8 7 9 8 11 17 12 9 13 12 14 16 15
REMARK SMILES IDX 10 16 11 17 13 18 15 19 14 20 18 21 19 22 30 23 24 24 20 25
REMARK SMILES IDX 25 26 29 27 23 28 21 29 26 30 28 31 22 32 27 33
REMARK H PARENT 1 5 1 6 5 10
ROOT
ATOM      1  C   UNL     1     104.037  92.105 114.168  1.00  0.00     0.183 C 
ENDROOT
BRANCH   1   2
ATOM      2  C   UNL     1     104.991  90.976 113.810  1.00  0.00     0.241 C 
ATOM      3  O   UNL     1     104.801  90.190 112.886  1.00  0.00    -0.273 OA
ATOM      4  N   UNL     1     106.115  90.953 114.607  1.00  0.00    -0.368 N 
ATOM      5  H   UNL     1     106.281  91.635 115.341  1.00  0.00     0.159 HD
ATOM      6  H   UNL     1     106.837  90.253 114.469  1.00  0.00     0.159 HD
ENDBRANCH   1   2
BRANCH   1   7
ATOM      7  N   UNL     1     104.685  92.958 115.127  1.00  0.00    -0.339 N 
ATOM      8  C   UNL     1     104.181  93.168 116.404  1.00  0.00     0.252 C 
ATOM      9  O   UNL     1     103.152  92.660 116.841  1.00  0.00    -0.269 OA
ATOM     10  H   UNL     1     105.539  93.435 114.852  1.00  0.00     0.164 HD
BRANCH   8  11
ATOM     11  C   UNL     1     104.955  94.099 117.268  1.00  0.00     0.047 A 
ATOM     12  C   UNL     1     104.687  95.477 117.319  1.00  0.00    -0.006 A 
ATOM     13  C   UNL     1     105.975  93.542 118.038  1.00  0.00     0.014 A 
ATOM     14  C   UNL     1     105.467  96.301 118.164  1.00  0.00    -0.018 A 
ATOM     15  C   UNL     1     103.664  96.054 116.550  1.00  0.00     0.009 A 
ATOM     16  C   UNL     1     106.742  94.353 118.869  1.00  0.00     0.001 A 
ATOM     17  C   UNL     1     106.491  95.723 118.933  1.00  0.00     0.009 A 
ATOM     18  C   UNL     1     105.200  97.679 118.216  1.00  0.00     0.009 A 
ATOM     19  C   UNL     1     103.413  97.425 116.614  1.00  0.00     0.001 A 
ATOM     20  C   UNL     1     104.180  98.235 117.445  1.00  0.00     0.001 A 
ENDBRANCH   8  11
ENDBRANCH   1   7
BRANCH   1  21
ATOM     21  C   UNL     1     103.633  92.889 112.926  1.00  0.00     0.082 C 
ATOM     22  C   UNL     1     102.540  93.911 113.207  1.00  0.00    -0.030 A 
ATOM     23  C   UNL     1     104.752  93.777 112.402  1.00  0.00    -0.030 A 
ATOM     24  C   UNL     1     102.991  95.213 112.896  1.00  0.00    -0.014 A 
ATOM     25  C   UNL     1     101.268  93.692 113.712  1.00  0.00     0.005 A 
ATOM     26  C   UNL     1     104.349  95.132 112.402  1.00  0.00    -0.014 A 
ATOM     27  C   UNL     1     106.020  93.405 111.983  1.00  0.00     0.005 A 
ATOM     28  C   UNL     1     102.164  96.309 113.081  1.00  0.00     0.009 A 
ATOM     29  C   UNL     1     100.435  94.795 113.897  1.00  0.00     0.000 A 
ATOM     30  C   UNL     1     105.213  96.124 111.971  1.00  0.00     0.009 A 
ATOM     31  C   UNL     1     106.889  94.406 111.548  1.00  0.00     0.000 A 
ATOM     32  C   UNL     1     100.877  96.092 113.584  1.00  0.00     0.001 A 
ATOM     33  C   UNL     1     106.491  95.753 111.542  1.00  0.00     0.001 A 
ENDBRANCH   1  21
TORSDOF 4
ENDMDL
MODEL 7
REMARK VINA RESULT:      -7.7     13.588     16.437
REMARK SMILES NC(=O)[C@@H](NC(=O)c1cccc2ccccc12)C1c2ccccc2-c2ccccc21
REMARK SMILES IDX 4 1 2 2 3 3 1 4 5 7 6 8 7 9 8 11 17 12 9 13 12 14 16 15
REMARK SMILES IDX 10 16 11 17 13 18 15 19 14 20 18 21 19 22 30 23 24 24 20 25
REMARK SMILES IDX 25 26 29 27 23 28 21 29 26 30 28 31 22 32 27 33
REMARK H PARENT 1 5 1 6 5 10
ROOT
ATOM      1  C   UNL     1     118.595  98.253 119.132  1.00  0.00     0.183 C 
ENDROOT
BRANCH   1   2
ATOM      2  C   UNL     1     117.425  98.163 118.165  1.00  0.00     0.241 C 
ATOM      3  O   UNL     1     117.406  97.424 117.184  1.00  0.00    -0.273 OA
ATOM      4  N   UNL     1     116.367  98.970 118.528  1.00  0.00    -0.368 N 
ATOM      5  H   UNL     1     116.378  99.545 119.364  1.00  0.00     0.159 HD
ATOM      6  H   UNL     1     115.520  98.997 117.971  1.00  0.00     0.159 HD
ENDBRANCH   1   2
BRANCH   1   7
ATOM      7  N   UNL     1     118.333  99.320 120.061  1.00  0.00    -0.339 N 
ATOM      8  C   UNL     1     119.280 100.285 120.380  1.00  0.00     0.252 C 
ATOM      9  O   UNL     1     120.416 100.330 119.915  1.00  0.00    -0.269 OA
ATOM     10  H   UNL     1     117.422  99.359 120.509  1.00  0.00     0.164 HD
BRANCH   8  11
ATOM     11  C   UNL     1     118.863 101.305 121.377  1.00  0.00     0.047 A 
ATOM     12  C   UNL     1     118.173 102.474 121.015  1.00  0.00    -0.006 A 
ATOM     13  C   UNL     1     119.188 101.054 122.710  1.00  0.00     0.014 A 
ATOM     14  C   UNL     1     117.808 103.401 122.020  1.00  0.00    -0.018 A 
ATOM     15  C   UNL     1     117.837 102.743 119.678  1.00  0.00     0.009 A 
ATOM     16  C   UNL     1     118.830 101.966 123.698  1.00  0.00     0.001 A 
ATOM     17  C   UNL     1     118.145 103.131 123.357  1.00  0.00     0.009 A 
ATOM     18  C   UNL     1     117.119 104.570 121.659  1.00  0.00     0.009 A 
ATOM     19  C   UNL     1     117.152 103.910 119.338  1.00  0.00     0.001 A 
ATOM     20  C   UNL     1     116.794 104.821 120.326  1.00  0.00     0.001 A 
ENDBRANCH   8  11
ENDBRANCH   1   7
BRANCH   1  21
ATOM     21  C   UNL     1     118.799  96.932 119.862  1.00  0.00     0.082 C 
ATOM     22  C   UNL     1     120.269  96.614 120.098  1.00  0.00    -0.030 A 
ATOM     23  C   UNL     1     118.261  96.959 121.286  1.00  0.00    -0.030 A 
ATOM     24  C   UNL     1     120.531  96.491 121.481  1.00  0.00    -0.014 A 
ATOM     25  C   UNL     1     121.278  96.467 119.160  1.00  0.00     0.005 A 
ATOM     26  C   UNL     1     119.299  96.703 122.211  1.00  0.00    -0.014 A 
ATOM     27  C   UNL     1     116.965  97.207 121.710  1.00  0.00     0.005 A 
ATOM     28  C   UNL     1     121.809  96.211 121.935  1.00  0.00     0.009 A 
ATOM     29  C   UNL     1     122.565  96.183 119.617  1.00  0.00     0.000 A 
ATOM     30  C   UNL     1     119.042  96.686 123.571  1.00  0.00     0.009 A 
ATOM     31  C   UNL     1     116.707  97.189 123.081  1.00  0.00     0.000 A 
ATOM     32  C   UNL     1     122.829  96.055 120.991  1.00  0.00     0.001 A 
ATOM     33  C   UNL     1     117.735  96.931 124.003  1.00  0.00     0.001 A 
ENDBRANCH   1  21
TORSDOF 4
ENDMDL
MODEL 8
REMARK VINA RESULT:      -7.7      2.123      3.046
REMARK SMILES NC(=O)[C@@H](NC(=O)c1cccc2ccccc12)C1c2ccccc2-c2ccccc21
REMARK SMILES IDX 4 1 2 2 3 3 1 4 5 7 6 8 7 9 8 11 17 12 9 13 12 14 16 15
REMARK SMILES IDX 10 16 11 17 13 18 15 19 14 20 18 21 19 22 30 23 24 24 20 25
REMARK SMILES IDX 25 26 29 27 23 28 21 29 26 30 28 31 22 32 27 33
REMARK H PARENT 1 5 1 6 5 10
ROOT
ATOM      1  C   UNL     1     105.920  95.298 113.310  1.00  0.00     0.183 C 
ENDROOT
BRANCH   1   2
ATOM      2  C   UNL     1     106.278  96.683 112.798  1.00  0.00     0.241 C 
ATOM      3  O   UNL     1     106.557  96.927 111.626  1.00  0.00    -0.273 OA
ATOM      4  N   UNL     1     106.217  97.649 113.779  1.00  0.00    -0.368 N 
ATOM      5  H   UNL     1     105.944  97.443 114.735  1.00  0.00     0.159 HD
ATOM      6  H   UNL     1     106.426  98.620 113.568  1.00  0.00     0.159 HD
ENDBRANCH   1   2
BRANCH   1   7
ATOM      7  N   UNL     1     105.443  95.424 114.661  1.00  0.00    -0.339 N 
ATOM      8  C   UNL     1     106.006  94.727 115.722  1.00  0.00     0.252 C 
ATOM      9  O   UNL     1     106.949  93.947 115.624  1.00  0.00    -0.269 OA
ATOM     10  H   UNL     1     104.654  96.038 114.841  1.00  0.00     0.164 HD
BRANCH   8  11
ATOM     11  C   UNL     1     105.382  94.948 117.053  1.00  0.00     0.047 A 
ATOM     12  C   UNL     1     104.343  94.138 117.541  1.00  0.00    -0.006 A 
ATOM     13  C   UNL     1     105.874  96.009 117.812  1.00  0.00     0.014 A 
ATOM     14  C   UNL     1     103.797  94.409 118.819  1.00  0.00    -0.018 A 
ATOM     15  C   UNL     1     103.835  93.065 116.791  1.00  0.00     0.009 A 
ATOM     16  C   UNL     1     105.337  96.276 119.068  1.00  0.00     0.001 A 
ATOM     17  C   UNL     1     104.306  95.482 119.569  1.00  0.00     0.009 A 
ATOM     18  C   UNL     1     102.759  93.600 119.308  1.00  0.00     0.009 A 
ATOM     19  C   UNL     1     102.803  92.272 117.293  1.00  0.00     0.001 A 
ATOM     20  C   UNL     1     102.266  92.539 118.548  1.00  0.00     0.001 A 
ENDBRANCH   8  11
ENDBRANCH   1   7
BRANCH   1  21
ATOM     21  C   UNL     1     104.871  94.644 112.420  1.00  0.00     0.082 C 
ATOM     22  C   UNL     1     104.586  93.200 112.812  1.00  0.00    -0.030 A 
ATOM     23  C   UNL     1     103.495  95.277 112.571  1.00  0.00    -0.030 A 
ATOM     24  C   UNL     1     103.225  93.042 113.156  1.00  0.00    -0.014 A 
ATOM     25  C   UNL     1     105.471  92.136 112.870  1.00  0.00     0.005 A 
ATOM     26  C   UNL     1     102.555  94.317 113.008  1.00  0.00    -0.014 A 
ATOM     27  C   UNL     1     103.128  96.596 112.354  1.00  0.00     0.005 A 
ATOM     28  C   UNL     1     102.737  91.809 113.554  1.00  0.00     0.009 A 
ATOM     29  C   UNL     1     104.979  90.893 113.271  1.00  0.00     0.000 A 
ATOM     30  C   UNL     1     101.233  94.671 113.223  1.00  0.00     0.009 A 
ATOM     31  C   UNL     1     101.796  96.951 112.570  1.00  0.00     0.000 A 
ATOM     32  C   UNL     1     103.625  90.730 113.609  1.00  0.00     0.001 A 
ATOM     33  C   UNL     1     100.857  95.999 113.000  1.00  0.00     0.001 A 
ENDBRANCH   1  21
TORSDOF 4
ENDMDL
MODEL 9
REMARK VINA RESULT:      -7.5     10.734     14.413
REMARK SMILES NC(=O)[C@@H](NC(=O)c1cccc2ccccc12)C1c2ccccc2-c2ccccc21
REMARK SMILES IDX 4 1 2 2 3 3 1 4 5 7 6 8 7 9 8 11 17 12 9 13 12 14 16 15
REMARK SMILES IDX 10 16 11 17 13 18 15 19 14 20 18 21 19 22 30 23 24 24 20 25
REMARK SMILES IDX 25 26 29 27 23 28 21 29 26 30 28 31 22 32 27 33
REMARK H PARENT 1 5 1 6 5 10
ROOT
ATOM      1  C   UNL     1     117.324  99.665 119.116  1.00  0.00     0.183 C 
ENDROOT
BRANCH   1   2
ATOM      2  C   UNL     1     117.403  99.438 117.615  1.00  0.00     0.241 C 
ATOM      3  O   UNL     1     117.148  98.365 117.072  1.00  0.00    -0.273 OA
ATOM      4  N   UNL     1     117.752 100.576 116.919  1.00  0.00    -0.368 N 
ATOM      5  H   UNL     1     117.919 101.467 117.374  1.00  0.00     0.159 HD
ATOM      6  H   UNL     1     117.833 100.562 115.907  1.00  0.00     0.159 HD
ENDBRANCH   1   2
BRANCH   1   7
ATOM      7  N   UNL     1     116.055  99.173 119.581  1.00  0.00    -0.339 N 
ATOM      8  C   UNL     1     115.221  99.915 120.409  1.00  0.00     0.252 C 
ATOM      9  O   UNL     1     115.472 101.043 120.823  1.00  0.00    -0.269 OA
ATOM     10  H   UNL     1     115.765  98.240 119.302  1.00  0.00     0.164 HD
BRANCH   8  11
ATOM     11  C   UNL     1     113.956  99.254 120.823  1.00  0.00     0.047 A 
ATOM     12  C   UNL     1     113.872  98.429 121.957  1.00  0.00    -0.006 A 
ATOM     13  C   UNL     1     112.834  99.488 120.028  1.00  0.00     0.014 A 
ATOM     14  C   UNL     1     112.632  97.833 122.288  1.00  0.00    -0.018 A 
ATOM     15  C   UNL     1     114.991  98.182 122.768  1.00  0.00     0.009 A 
ATOM     16  C   UNL     1     111.614  98.902 120.354  1.00  0.00     0.001 A 
ATOM     17  C   UNL     1     111.513  98.081 121.476  1.00  0.00     0.009 A 
ATOM     18  C   UNL     1     112.548  97.008 123.422  1.00  0.00     0.009 A 
ATOM     19  C   UNL     1     114.889  97.360 123.890  1.00  0.00     0.001 A 
ATOM     20  C   UNL     1     113.670  96.774 124.215  1.00  0.00     0.001 A 
ENDBRANCH   8  11
ENDBRANCH   1   7
BRANCH   1  21
ATOM     21  C   UNL     1     118.474  98.970 119.832  1.00  0.00     0.082 C 
ATOM     22  C   UNL     1     118.727  99.536 121.223  1.00  0.00    -0.030 A 
ATOM     23  C   UNL     1     118.174  97.511 120.147  1.00  0.00    -0.030 A 
ATOM     24  C   UNL     1     118.574  98.528 122.201  1.00  0.00    -0.014 A 
ATOM     25  C   UNL     1     119.046 100.837 121.576  1.00  0.00     0.005 A 
ATOM     26  C   UNL     1     118.234  97.285 121.541  1.00  0.00    -0.014 A 
ATOM     27  C   UNL     1     117.859  96.489 119.266  1.00  0.00     0.005 A 
ATOM     28  C   UNL     1     118.749  98.816 123.544  1.00  0.00     0.009 A 
ATOM     29  C   UNL     1     119.224 101.127 122.929  1.00  0.00     0.000 A 
ATOM     30  C   UNL     1     117.986  96.026 122.062  1.00  0.00     0.009 A 
ATOM     31  C   UNL     1     117.610  95.221 119.792  1.00  0.00     0.000 A 
ATOM     32  C   UNL     1     119.077 100.127 123.904  1.00  0.00     0.001 A 
ATOM     33  C   UNL     1     117.674  94.990 121.176  1.00  0.00     0.001 A 
ENDBRANCH   1  21
TORSDOF 4
ENDMDL
MODEL 10
REMARK VINA RESULT:      -7.5     10.651     14.314
REMARK SMILES NC(=O)[C@@H](NC(=O)c1cccc2ccccc12)C1c2ccccc2-c2ccccc21
REMARK SMILES IDX 4 1 2 2 3 3 1 4 5 7 6 8 7 9 8 11 17 12 9 13 12 14 16 15
REMARK SMILES IDX 10 16 11 17 13 18 15 19 14 20 18 21 19 22 30 23 24 24 20 25
REMARK SMILES IDX 25 26 29 27 23 28 21 29 26 30 28 31 22 32 27 33
REMARK H PARENT 1 5 1 6 5 10
ROOT
ATOM      1  C   UNL     1     114.929  99.391 120.814  1.00  0.00     0.183 C 
ENDROOT
BRANCH   1   2
ATOM      2  C   UNL     1     114.903 100.910 120.776  1.00  0.00     0.241 C 
ATOM      3  O   UNL     1     115.087 101.621 121.761  1.00  0.00    -0.273 OA
ATOM      4  N   UNL     1     114.691 101.410 119.509  1.00  0.00    -0.368 N 
ATOM      5  H   UNL     1     114.582 100.813 118.695  1.00  0.00     0.159 HD
ATOM      6  H   UNL     1     114.659 102.411 119.343  1.00  0.00     0.159 HD
ENDBRANCH   1   2
BRANCH   1   7
ATOM      7  N   UNL     1     116.301  98.962 120.821  1.00  0.00    -0.339 N 
ATOM      8  C   UNL     1     117.043  98.804 119.656  1.00  0.00     0.252 C 
ATOM      9  O   UNL     1     116.615  99.009 118.523  1.00  0.00    -0.269 OA
ATOM     10  H   UNL     1     116.740  98.754 121.714  1.00  0.00     0.164 HD
BRANCH   8  11
ATOM     11  C   UNL     1     118.440  98.329 119.831  1.00  0.00     0.047 A 
ATOM     12  C   UNL     1     118.748  97.105 120.446  1.00  0.00    -0.006 A 
ATOM     13  C   UNL     1     119.453  99.161 119.353  1.00  0.00     0.014 A 
ATOM     14  C   UNL     1     120.104  96.719 120.577  1.00  0.00    -0.018 A 
ATOM     15  C   UNL     1     117.742  96.255 120.933  1.00  0.00     0.009 A 
ATOM     16  C   UNL     1     120.785  98.781 119.482  1.00  0.00     0.001 A 
ATOM     17  C   UNL     1     121.110  97.569 120.090  1.00  0.00     0.009 A 
ATOM     18  C   UNL     1     120.413  95.494 121.192  1.00  0.00     0.009 A 
ATOM     19  C   UNL     1     118.068  95.043 121.542  1.00  0.00     0.001 A 
ATOM     20  C   UNL     1     119.400  94.664 121.672  1.00  0.00     0.001 A 
ENDBRANCH   8  11
ENDBRANCH   1   7
BRANCH   1  21
ATOM     21  C   UNL     1     114.187  98.865 122.037  1.00  0.00     0.082 C 
ATOM     22  C   UNL     1     113.100  97.861 121.678  1.00  0.00    -0.030 A 
ATOM     23  C   UNL     1     115.077  98.036 122.952  1.00  0.00    -0.030 A 
ATOM     24  C   UNL     1     113.353  96.618 122.299  1.00  0.00    -0.014 A 
ATOM     25  C   UNL     1     112.000  98.044 120.857  1.00  0.00     0.005 A 
ATOM     26  C   UNL     1     114.567  96.724 123.081  1.00  0.00    -0.014 A 
ATOM     27  C   UNL     1     116.245  98.419 123.592  1.00  0.00     0.005 A 
ATOM     28  C   UNL     1     112.497  95.547 122.108  1.00  0.00     0.009 A 
ATOM     29  C   UNL     1     111.136  96.965 120.665  1.00  0.00     0.000 A 
ATOM     30  C   UNL     1     115.221  95.787 123.863  1.00  0.00     0.009 A 
ATOM     31  C   UNL     1     116.903  97.474 124.381  1.00  0.00     0.000 A 
ATOM     32  C   UNL     1     111.381  95.728 121.285  1.00  0.00     0.001 A 
ATOM     33  C   UNL     1     116.397  96.171 124.516  1.00  0.00     0.001 A 
ENDBRANCH   1  21
TORSDOF 4
ENDMDL
MODEL 11
REMARK VINA RESULT:      -7.5      0.882      2.214
REMARK SMILES NC(=O)[C@@H](NC(=O)c1cccc2ccccc12)C1c2ccccc2-c2ccccc21
REMARK SMILES IDX 4 1 2 2 3 3 1 4 5 7 6 8 7 9 8 11 17 12 9 13 12 14 16 15
REMARK SMILES IDX 10 16 11 17 13 18 15 19 14 20 18 21 19 22 30 23 24 24 20 25
REMARK SMILES IDX 25 26 29 27 23 28 21 29 26 30 28 31 22 32 27 33
REMARK H PARENT 1 5 1 6 5 10
ROOT
ATOM      1  C   UNL     1     105.652  93.339 113.256  1.00  0.00     0.183 C 
ENDROOT
BRANCH   1   2
ATOM      2  C   UNL     1     107.072  93.189 112.735  1.00  0.00     0.241 C 
ATOM      3  O   UNL     1     108.073  93.303 113.438  1.00  0.00    -0.273 OA
ATOM      4  N   UNL     1     107.119  92.868 111.395  1.00  0.00    -0.368 N 
ATOM      5  H   UNL     1     106.284  92.735 110.833  1.00  0.00     0.159 HD
ATOM      6  H   UNL     1     108.008  92.732 110.923  1.00  0.00     0.159 HD
ENDBRANCH   1   2
BRANCH   1   7
ATOM      7  N   UNL     1     105.679  94.217 114.395  1.00  0.00    -0.339 N 
ATOM      8  C   UNL     1     104.936  93.976 115.544  1.00  0.00     0.252 C 
ATOM      9  O   UNL     1     104.193  93.011 115.707  1.00  0.00    -0.269 OA
ATOM     10  H   UNL     1     106.255  95.052 114.350  1.00  0.00     0.164 HD
BRANCH   8  11
ATOM     11  C   UNL     1     105.053  94.992 116.623  1.00  0.00     0.047 A 
ATOM     12  C   UNL     1     106.052  94.931 117.609  1.00  0.00    -0.006 A 
ATOM     13  C   UNL     1     104.117  96.025 116.620  1.00  0.00     0.014 A 
ATOM     14  C   UNL     1     106.101  95.935 118.606  1.00  0.00    -0.018 A 
ATOM     15  C   UNL     1     107.003  93.898 117.628  1.00  0.00     0.009 A 
ATOM     16  C   UNL     1     104.165  97.012 117.600  1.00  0.00     0.001 A 
ATOM     17  C   UNL     1     105.149  96.968 118.587  1.00  0.00     0.009 A 
ATOM     18  C   UNL     1     107.099  95.876 119.592  1.00  0.00     0.009 A 
ATOM     19  C   UNL     1     107.987  93.855 118.615  1.00  0.00     0.001 A 
ATOM     20  C   UNL     1     108.034  94.841 119.595  1.00  0.00     0.001 A 
ENDBRANCH   8  11
ENDBRANCH   1   7
BRANCH   1  21
ATOM     21  C   UNL     1     104.729  93.881 112.172  1.00  0.00     0.082 C 
ATOM     22  C   UNL     1     103.259  93.617 112.467  1.00  0.00    -0.030 A 
ATOM     23  C   UNL     1     104.754  95.400 112.085  1.00  0.00    -0.030 A 
ATOM     24  C   UNL     1     102.547  94.835 112.551  1.00  0.00    -0.014 A 
ATOM     25  C   UNL     1     102.626  92.400 112.659  1.00  0.00     0.005 A 
ATOM     26  C   UNL     1     103.465  95.930 112.317  1.00  0.00    -0.014 A 
ATOM     27  C   UNL     1     105.838  96.229 111.839  1.00  0.00     0.005 A 
ATOM     28  C   UNL     1     101.189  94.840 112.821  1.00  0.00     0.009 A 
ATOM     29  C   UNL     1     101.258  92.405 112.929  1.00  0.00     0.000 A 
ATOM     30  C   UNL     1     103.249  97.297 112.295  1.00  0.00     0.009 A 
ATOM     31  C   UNL     1     105.620  97.607 111.817  1.00  0.00     0.000 A 
ATOM     32  C   UNL     1     100.544  93.613 113.009  1.00  0.00     0.001 A 
ATOM     33  C   UNL     1     104.338  98.137 112.042  1.00  0.00     0.001 A 
ENDBRANCH   1  21
TORSDOF 4
ENDMDL
MODEL 12
REMARK VINA RESULT:      -7.5      9.816     13.605
REMARK SMILES NC(=O)[C@@H](NC(=O)c1cccc2ccccc12)C1c2ccccc2-c2ccccc21
REMARK SMILES IDX 4 1 2 2 3 3 1 4 5 7 6 8 7 9 8 11 17 12 9 13 12 14 16 15
REMARK SMILES IDX 10 16 11 17 13 18 15 19 14 20 18 21 19 22 30 23 24 24 20 25
REMARK SMILES IDX 25 26 29 27 23 28 21 29 26 30 28 31 22 32 27 33
REMARK H PARENT 1 5 1 6 5 10
ROOT
ATOM      1  C   UNL     1     114.805  95.541 123.577  1.00  0.00     0.183 C 
ENDROOT
BRANCH   1   2
ATOM      2  C   UNL     1     114.553  94.049 123.432  1.00  0.00     0.241 C 
ATOM      3  O   UNL     1     114.976  93.372 122.499  1.00  0.00    -0.273 OA
ATOM      4  N   UNL     1     113.831  93.524 124.484  1.00  0.00    -0.368 N 
ATOM      5  H   UNL     1     113.523  94.085 125.271  1.00  0.00     0.159 HD
ATOM      6  H   UNL     1     113.600  92.536 124.514  1.00  0.00     0.159 HD
ENDBRANCH   1   2
BRANCH   1   7
ATOM      7  N   UNL     1     115.523  95.992 122.414  1.00  0.00    -0.339 N 
ATOM      8  C   UNL     1     116.789  96.559 122.489  1.00  0.00     0.252 C 
ATOM      9  O   UNL     1     117.417  96.731 123.531  1.00  0.00    -0.269 OA
ATOM     10  H   UNL     1     115.078  95.904 121.505  1.00  0.00     0.164 HD
BRANCH   8  11
ATOM     11  C   UNL     1     117.385  96.998 121.201  1.00  0.00     0.047 A 
ATOM     12  C   UNL     1     117.161  98.277 120.664  1.00  0.00    -0.006 A 
ATOM     13  C   UNL     1     118.190  96.076 120.532  1.00  0.00     0.014 A 
ATOM     14  C   UNL     1     117.762  98.624 119.430  1.00  0.00    -0.018 A 
ATOM     15  C   UNL     1     116.354  99.218 121.323  1.00  0.00     0.009 A 
ATOM     16  C   UNL     1     118.781  96.418 119.319  1.00  0.00     0.001 A 
ATOM     17  C   UNL     1     118.569  97.682 118.771  1.00  0.00     0.009 A 
ATOM     18  C   UNL     1     117.538  99.902 118.893  1.00  0.00     0.009 A 
ATOM     19  C   UNL     1     116.142 100.482 120.774  1.00  0.00     0.001 A 
ATOM     20  C   UNL     1     116.732 100.823 119.562  1.00  0.00     0.001 A 
ENDBRANCH   8  11
ENDBRANCH   1   7
BRANCH   1  21
ATOM     21  C   UNL     1     113.495  96.301 123.738  1.00  0.00     0.082 C 
ATOM     22  C   UNL     1     113.707  97.783 124.015  1.00  0.00    -0.030 A 
ATOM     23  C   UNL     1     112.679  96.345 122.453  1.00  0.00    -0.030 A 
ATOM     24  C   UNL     1     113.101  98.564 123.006  1.00  0.00    -0.014 A 
ATOM     25  C   UNL     1     114.394  98.371 125.064  1.00  0.00     0.005 A 
ATOM     26  C   UNL     1     112.470  97.682 122.047  1.00  0.00    -0.014 A 
ATOM     27  C   UNL     1     112.189  95.283 121.711  1.00  0.00     0.005 A 
ATOM     28  C   UNL     1     113.172  99.947 123.046  1.00  0.00     0.009 A 
ATOM     29  C   UNL     1     114.465  99.764 125.106  1.00  0.00     0.000 A 
ATOM     30  C   UNL     1     111.757  97.965 120.894  1.00  0.00     0.009 A 
ATOM     31  C   UNL     1     111.470  95.569 120.550  1.00  0.00     0.000 A 
ATOM     32  C   UNL     1     113.859 100.545 124.107  1.00  0.00     0.001 A 
ATOM     33  C   UNL     1     111.255  96.897 120.145  1.00  0.00     0.001 A 
ENDBRANCH   1  21
TORSDOF 4
ENDMDL
MODEL 13
REMARK VINA RESULT:      -7.4      2.487      6.170
REMARK SMILES NC(=O)[C@@H](NC(=O)c1cccc2ccccc12)C1c2ccccc2-c2ccccc21
REMARK SMILES IDX 4 1 2 2 3 3 1 4 5 7 6 8 7 9 8 11 17 12 9 13 12 14 16 15
REMARK SMILES IDX 10 16 11 17 13 18 15 19 14 20 18 21 19 22 30 23 24 24 20 25
REMARK SMILES IDX 25 26 29 27 23 28 21 29 26 30 28 31 22 32 27 33
REMARK H PARENT 1 5 1 6 5 10
ROOT
ATOM      1  C   UNL     1     102.477  94.871 116.469  1.00  0.00     0.183 C 
ENDROOT
BRANCH   1   2
ATOM      2  C   UNL     1     102.092  95.969 117.447  1.00  0.00     0.241 C 
ATOM      3  O   UNL     1     102.450  97.139 117.334  1.00  0.00    -0.273 OA
ATOM      4  N   UNL     1     101.262  95.523 118.453  1.00  0.00    -0.368 N 
ATOM      5  H   UNL     1     100.939  94.563 118.512  1.00  0.00     0.159 HD
ATOM      6  H   UNL     1     100.925  96.159 119.169  1.00  0.00     0.159 HD
ENDBRANCH   1   2
BRANCH   1   7
ATOM      7  N   UNL     1     103.291  95.451 115.435  1.00  0.00    -0.339 N 
ATOM      8  C   UNL     1     102.956  95.377 114.088  1.00  0.00     0.252 C 
ATOM      9  O   UNL     1     101.953  94.822 113.647  1.00  0.00    -0.269 OA
ATOM     10  H   UNL     1     104.151  95.922 115.701  1.00  0.00     0.164 HD
BRANCH   8  11
ATOM     11  C   UNL     1     103.914  96.005 113.141  1.00  0.00     0.047 A 
ATOM     12  C   UNL     1     104.939  95.277 112.514  1.00  0.00    -0.006 A 
ATOM     13  C   UNL     1     103.756  97.368 112.895  1.00  0.00     0.014 A 
ATOM     14  C   UNL     1     105.815  95.943 111.624  1.00  0.00    -0.018 A 
ATOM     15  C   UNL     1     105.114  93.903 112.750  1.00  0.00     0.009 A 
ATOM     16  C   UNL     1     104.617  98.023 112.020  1.00  0.00     0.001 A 
ATOM     17  C   UNL     1     105.640  97.317 111.388  1.00  0.00     0.009 A 
ATOM     18  C   UNL     1     106.840  95.216 110.996  1.00  0.00     0.009 A 
ATOM     19  C   UNL     1     106.138  93.198 112.118  1.00  0.00     0.001 A 
ATOM     20  C   UNL     1     106.999  93.853 111.244  1.00  0.00     0.001 A 
ENDBRANCH   8  11
ENDBRANCH   1   7
BRANCH   1  21
ATOM     21  C   UNL     1     103.219  93.746 117.180  1.00  0.00     0.082 C 
ATOM     22  C   UNL     1     103.655  92.639 116.230  1.00  0.00    -0.030 A 
ATOM     23  C   UNL     1     104.554  94.196 117.756  1.00  0.00    -0.030 A 
ATOM     24  C   UNL     1     105.060  92.492 116.256  1.00  0.00    -0.014 A 
ATOM     25  C   UNL     1     102.865  91.851 115.409  1.00  0.00     0.005 A 
ATOM     26  C   UNL     1     105.612  93.448 117.192  1.00  0.00    -0.014 A 
ATOM     27  C   UNL     1     104.796  95.195 118.686  1.00  0.00     0.005 A 
ATOM     28  C   UNL     1     105.684  91.545 115.461  1.00  0.00     0.009 A 
ATOM     29  C   UNL     1     103.494  90.896 114.609  1.00  0.00     0.000 A 
ATOM     30  C   UNL     1     106.924  93.691 117.564  1.00  0.00     0.009 A 
ATOM     31  C   UNL     1     106.118  95.439 119.060  1.00  0.00     0.000 A 
ATOM     32  C   UNL     1     104.891  90.744 114.635  1.00  0.00     0.001 A 
ATOM     33  C   UNL     1     107.172  94.694 118.506  1.00  0.00     0.001 A 
ENDBRANCH   1  21
TORSDOF 4
ENDMDL
MODEL 14
REMARK VINA RESULT:      -7.3      3.312      5.183
REMARK SMILES NC(=O)[C@@H](NC(=O)c1cccc2ccccc12)C1c2ccccc2-c2ccccc21
REMARK SMILES IDX 4 1 2 2 3 3 1 4 5 7 6 8 7 9 8 11 17 12 9 13 12 14 16 15
REMARK SMILES IDX 10 16 11 17 13 18 15 19 14 20 18 21 19 22 30 23 24 24 20 25
REMARK SMILES IDX 25 26 29 27 23 28 21 29 26 30 28 31 22 32 27 33
REMARK H PARENT 1 5 1 6 5 10
ROOT
ATOM      1  C   UNL     1     104.610  92.995 115.768  1.00  0.00     0.183 C 
ENDROOT
BRANCH   1   2
ATOM      2  C   UNL     1     105.562  91.865 115.410  1.00  0.00     0.241 C 
ATOM      3  O   UNL     1     106.123  91.765 114.322  1.00  0.00    -0.273 OA
ATOM      4  N   UNL     1     105.762  90.984 116.451  1.00  0.00    -0.368 N 
ATOM      5  H   UNL     1     105.325  91.100 117.359  1.00  0.00     0.159 HD
ATOM      6  H   UNL     1     106.382  90.187 116.345  1.00  0.00     0.159 HD
ENDBRANCH   1   2
BRANCH   1   7
ATOM      7  N   UNL     1     104.046  92.718 117.062  1.00  0.00    -0.339 N 
ATOM      8  C   UNL     1     102.686  92.830 117.325  1.00  0.00     0.252 C 
ATOM      9  O   UNL     1     101.840  93.169 116.502  1.00  0.00    -0.269 OA
ATOM     10  H   UNL     1     104.670  92.443 117.814  1.00  0.00     0.164 HD
BRANCH   8  11
ATOM     11  C   UNL     1     102.264  92.534 118.719  1.00  0.00     0.047 A 
ATOM     12  C   UNL     1     102.324  93.493 119.744  1.00  0.00    -0.006 A 
ATOM     13  C   UNL     1     101.800  91.244 118.977  1.00  0.00     0.014 A 
ATOM     14  C   UNL     1     101.905  93.137 121.049  1.00  0.00    -0.018 A 
ATOM     15  C   UNL     1     102.788  94.796 119.503  1.00  0.00     0.009 A 
ATOM     16  C   UNL     1     101.389  90.895 120.260  1.00  0.00     0.001 A 
ATOM     17  C   UNL     1     101.441  91.833 121.289  1.00  0.00     0.009 A 
ATOM     18  C   UNL     1     101.964  94.095 122.074  1.00  0.00     0.009 A 
ATOM     19  C   UNL     1     102.840  95.734 120.534  1.00  0.00     0.001 A 
ATOM     20  C   UNL     1     102.430  95.385 121.816  1.00  0.00     0.001 A 
ENDBRANCH   8  11
ENDBRANCH   1   7
BRANCH   1  21
ATOM     21  C   UNL     1     105.333  94.336 115.764  1.00  0.00     0.082 C 
ATOM     22  C   UNL     1     104.377  95.518 115.674  1.00  0.00    -0.030 A 
ATOM     23  C   UNL     1     106.047  94.622 117.078  1.00  0.00    -0.030 A 
ATOM     24  C   UNL     1     104.522  96.357 116.802  1.00  0.00    -0.014 A 
ATOM     25  C   UNL     1     103.453  95.801 114.682  1.00  0.00     0.005 A 
ATOM     26  C   UNL     1     105.547  95.807 117.664  1.00  0.00    -0.014 A 
ATOM     27  C   UNL     1     107.039  93.878 117.696  1.00  0.00     0.005 A 
ATOM     28  C   UNL     1     103.745  97.495 116.939  1.00  0.00     0.009 A 
ATOM     29  C   UNL     1     102.670  96.948 114.819  1.00  0.00     0.000 A 
ATOM     30  C   UNL     1     106.046  96.260 118.874  1.00  0.00     0.009 A 
ATOM     31  C   UNL     1     107.542  94.336 118.915  1.00  0.00     0.000 A 
ATOM     32  C   UNL     1     102.815  97.788 115.937  1.00  0.00     0.001 A 
ATOM     33  C   UNL     1     107.051  95.515 119.498  1.00  0.00     0.001 A 
ENDBRANCH   1  21
TORSDOF 4
ENDMDL
MODEL 15
REMARK VINA RESULT:      -7.3      2.237      5.840
REMARK SMILES NC(=O)[C@@H](NC(=O)c1cccc2ccccc12)C1c2ccccc2-c2ccccc21
REMARK SMILES IDX 4 1 2 2 3 3 1 4 5 7 6 8 7 9 8 11 17 12 9 13 12 14 16 15
REMARK SMILES IDX 10 16 11 17 13 18 15 19 14 20 18 21 19 22 30 23 24 24 20 25
REMARK SMILES IDX 25 26 29 27 23 28 21 29 26 30 28 31 22 32 27 33
REMARK H PARENT 1 5 1 6 5 10
ROOT
ATOM      1  C   UNL     1     104.790  94.135 117.593  1.00  0.00     0.183 C 
ENDROOT
BRANCH   1   2
ATOM      2  C   UNL     1     104.294  92.741 117.944  1.00  0.00     0.241 C 
ATOM      3  O   UNL     1     103.395  92.520 118.752  1.00  0.00    -0.273 OA
ATOM      4  N   UNL     1     104.931  91.750 117.228  1.00  0.00    -0.368 N 
ATOM      5  H   UNL     1     105.643  91.948 116.532  1.00  0.00     0.159 HD
ATOM      6  H   UNL     1     104.688  90.774 117.362  1.00  0.00     0.159 HD
ENDBRANCH   1   2
BRANCH   1   7
ATOM      7  N   UNL     1     105.073  94.173 116.183  1.00  0.00    -0.339 N 
ATOM      8  C   UNL     1     106.367  94.201 115.679  1.00  0.00     0.252 C 
ATOM      9  O   UNL     1     107.385  94.197 116.367  1.00  0.00    -0.269 OA
ATOM     10  H   UNL     1     104.293  94.193 115.533  1.00  0.00     0.164 HD
BRANCH   8  11
ATOM     11  C   UNL     1     106.491  94.265 114.199  1.00  0.00     0.047 A 
ATOM     12  C   UNL     1     106.184  95.424 113.468  1.00  0.00    -0.006 A 
ATOM     13  C   UNL     1     106.929  93.110 113.553  1.00  0.00     0.014 A 
ATOM     14  C   UNL     1     106.325  95.410 112.059  1.00  0.00    -0.018 A 
ATOM     15  C   UNL     1     105.741  96.596 114.101  1.00  0.00     0.009 A 
ATOM     16  C   UNL     1     107.068  93.096 112.168  1.00  0.00     0.001 A 
ATOM     17  C   UNL     1     106.768  94.237 111.426  1.00  0.00     0.009 A 
ATOM     18  C   UNL     1     106.019  96.569 111.327  1.00  0.00     0.009 A 
ATOM     19  C   UNL     1     105.441  97.737 113.357  1.00  0.00     0.001 A 
ATOM     20  C   UNL     1     105.579  97.723 111.973  1.00  0.00     0.001 A 
ENDBRANCH   8  11
ENDBRANCH   1   7
BRANCH   1  21
ATOM     21  C   UNL     1     103.759  95.190 117.971  1.00  0.00     0.082 C 
ATOM     22  C   UNL     1     104.394  96.464 118.513  1.00  0.00    -0.030 A 
ATOM     23  C   UNL     1     102.992  95.720 116.768  1.00  0.00    -0.030 A 
ATOM     24  C   UNL     1     104.043  97.570 117.707  1.00  0.00    -0.014 A 
ATOM     25  C   UNL     1     105.222  96.610 119.613  1.00  0.00     0.005 A 
ATOM     26  C   UNL     1     103.183  97.114 116.636  1.00  0.00    -0.014 A 
ATOM     27  C   UNL     1     102.213  95.013 115.866  1.00  0.00     0.005 A 
ATOM     28  C   UNL     1     104.515  98.838 118.006  1.00  0.00     0.009 A 
ATOM     29  C   UNL     1     105.697  97.887 119.915  1.00  0.00     0.000 A 
ATOM     30  C   UNL     1     102.584  97.813 115.601  1.00  0.00     0.009 A 
ATOM     31  C   UNL     1     101.610  95.718 114.824  1.00  0.00     0.000 A 
ATOM     32  C   UNL     1     105.346  98.991 119.120  1.00  0.00     0.001 A 
ATOM     33  C   UNL     1     101.792  97.104 114.692  1.00  0.00     0.001 A 
ENDBRANCH   1  21
TORSDOF 4
ENDMDL
