MODEL 1
REMARK VINA RESULT:     -11.1      0.000      0.000
REMARK SMILES O=c1[nH][nH]c2ccc(-c3nc(Nc4n[nH]c5ccccc45)c4ccccc4n3)c([N+](=O)[O-])c12
REMARK SMILES IDX 10 1 28 2 9 3 11 4 22 5 27 6 23 7 26 8 24 9 25 10 8 11 1 12
REMARK SMILES IDX 2 13 3 14 33 15 4 16 29 17 5 18 6 19 7 20 30 23 31 24 32 25
REMARK SMILES IDX 12 26 13 28 14 29 21 30 15 31 16 32 20 33 17 34 19 35 18 36
REMARK H PARENT 3 21 4 22 12 27 15 37
ROOT
ATOM      1  N   UNL     1     111.622 112.267  76.835  1.00  0.00    -0.210 NA
ATOM      2  N   UNL     1     109.549 113.490  76.955  1.00  0.00    -0.228 NA
ATOM      3  C   UNL     1     110.430 112.661  76.359  1.00  0.00     0.169 A 
ATOM      4  C   UNL     1     111.939 112.775  78.042  1.00  0.00     0.143 A 
ATOM      5  C   UNL     1     111.120 113.640  78.761  1.00  0.00     0.043 A 
ATOM      6  C   UNL     1     109.898 113.979  78.159  1.00  0.00     0.076 A 
ATOM      7  C   UNL     1     111.474 114.157  80.020  1.00  0.00     0.014 A 
ATOM      8  C   UNL     1     109.051 114.843  78.848  1.00  0.00     0.029 A 
ATOM      9  C   UNL     1     110.607 115.017  80.687  1.00  0.00     0.001 A 
ATOM     10  C   UNL     1     109.395 115.360  80.100  1.00  0.00     0.002 A 
ENDROOT
BRANCH   3  11
ATOM     11  C   UNL     1     110.047 112.138  75.060  1.00  0.00     0.098 A 
ATOM     12  O   UNL     1     106.641 109.590  73.790  1.00  0.00    -0.267 OA
ATOM     13  C   UNL     1     107.542 110.065  73.125  1.00  0.00     0.278 A 
ATOM     14  N   UNL     1     107.773 109.935  71.764  1.00  0.00    -0.265 N 
ATOM     15  C   UNL     1     108.628 110.904  73.632  1.00  0.00     0.144 A 
ATOM     16  N   UNL     1     108.882 110.658  71.361  1.00  0.00    -0.297 N 
ATOM     17  C   UNL     1     108.905 111.351  74.907  1.00  0.00     0.295 A 
ATOM     18  C   UNL     1     109.427 111.187  72.526  1.00  0.00     0.074 A 
ATOM     19  C   UNL     1     110.547 111.981  72.672  1.00  0.00     0.030 A 
ATOM     20  C   UNL     1     110.859 112.452  73.953  1.00  0.00     0.021 A 
ATOM     21  H   UNL     1     107.230 109.430  71.075  1.00  0.00     0.191 HD
ATOM     22  H   UNL     1     108.862 111.172  70.492  1.00  0.00     0.188 HD
BRANCH  17  23
ATOM     23  N   UNL     1     108.064 111.021  76.004  1.00  0.00     0.064 N 
ATOM     24  O   UNL     1     108.364 110.040  76.725  1.00  0.00    -0.258 OA
ATOM     25  O   UNL     1     107.045 111.720  76.219  1.00  0.00    -0.258 OA
ENDBRANCH  17  23
ENDBRANCH   3  11
BRANCH   4  26
ATOM     26  N   UNL     1     113.189 112.388  78.586  1.00  0.00    -0.322 N 
ATOM     27  H   UNL     1     113.084 111.643  79.271  1.00  0.00     0.170 HD
BRANCH  26  28
ATOM     28  C   UNL     1     114.511 112.755  78.282  1.00  0.00     0.161 A 
ATOM     29  N   UNL     1     115.217 112.309  77.241  1.00  0.00    -0.157 NA
ATOM     30  C   UNL     1     115.231 113.665  79.084  1.00  0.00     0.044 A 
ATOM     31  N   UNL     1     116.396 112.937  77.375  1.00  0.00    -0.276 N 
ATOM     32  C   UNL     1     116.471 113.765  78.462  1.00  0.00     0.067 A 
ATOM     33  C   UNL     1     114.985 114.409  80.250  1.00  0.00     0.014 A 
ATOM     34  C   UNL     1     117.500 114.578  78.941  1.00  0.00     0.028 A 
ATOM     35  C   UNL     1     116.003 115.231  80.747  1.00  0.00     0.001 A 
ATOM     36  C   UNL     1     117.239 115.313  80.103  1.00  0.00     0.002 A 
ATOM     37  H   UNL     1     117.116 112.755  76.686  1.00  0.00     0.190 HD
ENDBRANCH  26  28
ENDBRANCH   4  26
TORSDOF 4
ENDMDL
MODEL 2
REMARK VINA RESULT:     -10.8      2.141      2.515
REMARK SMILES O=c1[nH][nH]c2ccc(-c3nc(Nc4n[nH]c5ccccc45)c4ccccc4n3)c([N+](=O)[O-])c12
REMARK SMILES IDX 10 1 28 2 9 3 11 4 22 5 27 6 23 7 26 8 24 9 25 10 8 11 1 12
REMARK SMILES IDX 2 13 3 14 33 15 4 16 29 17 5 18 6 19 7 20 30 23 31 24 32 25
REMARK SMILES IDX 12 26 13 28 14 29 21 30 15 31 16 32 20 33 17 34 19 35 18 36
REMARK H PARENT 3 21 4 22 12 27 15 37
ROOT
ATOM      1  N   UNL     1     111.897 113.072  77.366  1.00  0.00    -0.210 NA
ATOM      2  N   UNL     1     111.140 110.920  78.143  1.00  0.00    -0.228 NA
ATOM      3  C   UNL     1     111.449 111.818  77.186  1.00  0.00     0.169 A 
ATOM      4  C   UNL     1     112.041 113.437  78.654  1.00  0.00     0.143 A 
ATOM      5  C   UNL     1     111.757 112.606  79.734  1.00  0.00     0.043 A 
ATOM      6  C   UNL     1     111.295 111.318  79.419  1.00  0.00     0.076 A 
ATOM      7  C   UNL     1     111.915 113.011  81.071  1.00  0.00     0.014 A 
ATOM      8  C   UNL     1     111.000 110.458  80.474  1.00  0.00     0.029 A 
ATOM      9  C   UNL     1     111.613 112.130  82.105  1.00  0.00     0.001 A 
ATOM     10  C   UNL     1     111.156 110.853  81.806  1.00  0.00     0.002 A 
ENDROOT
BRANCH   3  11
ATOM     11  C   UNL     1     111.279 111.381  75.813  1.00  0.00     0.098 A 
ATOM     12  O   UNL     1     107.875 111.771  72.991  1.00  0.00    -0.267 OA
ATOM     13  C   UNL     1     108.964 111.255  72.823  1.00  0.00     0.278 A 
ATOM     14  N   UNL     1     109.455 110.622  71.691  1.00  0.00    -0.265 N 
ATOM     15  C   UNL     1     110.035 111.177  73.817  1.00  0.00     0.144 A 
ATOM     16  N   UNL     1     110.759 110.196  71.869  1.00  0.00    -0.297 N 
ATOM     17  C   UNL     1     110.096 111.632  75.117  1.00  0.00     0.295 A 
ATOM     18  C   UNL     1     111.070 110.484  73.193  1.00  0.00     0.074 A 
ATOM     19  C   UNL     1     112.248 110.251  73.874  1.00  0.00     0.030 A 
ATOM     20  C   UNL     1     112.346 110.699  75.197  1.00  0.00     0.021 A 
ATOM     21  H   UNL     1     109.003 110.483  70.797  1.00  0.00     0.191 HD
ATOM     22  H   UNL     1     111.431 110.297  71.122  1.00  0.00     0.188 HD
BRANCH  17  23
ATOM     23  N   UNL     1     109.004 112.323  75.710  1.00  0.00     0.064 N 
ATOM     24  O   UNL     1     108.140 111.665  76.338  1.00  0.00    -0.258 OA
ATOM     25  O   UNL     1     108.936 113.569  75.587  1.00  0.00    -0.258 OA
ENDBRANCH  17  23
ENDBRANCH   3  11
BRANCH   4  26
ATOM     26  N   UNL     1     112.511 114.752  78.894  1.00  0.00    -0.322 N 
ATOM     27  H   UNL     1     111.844 115.294  79.439  1.00  0.00     0.170 HD
BRANCH  26  28
ATOM     28  C   UNL     1     113.734 115.387  78.622  1.00  0.00     0.161 A 
ATOM     29  N   UNL     1     113.894 116.452  77.833  1.00  0.00    -0.157 NA
ATOM     30  C   UNL     1     114.946 114.934  79.183  1.00  0.00     0.044 A 
ATOM     31  N   UNL     1     115.215 116.684  77.890  1.00  0.00    -0.276 N 
ATOM     32  C   UNL     1     115.905 115.808  78.683  1.00  0.00     0.067 A 
ATOM     33  C   UNL     1     115.342 113.898  80.047  1.00  0.00     0.014 A 
ATOM     34  C   UNL     1     117.262 115.711  78.999  1.00  0.00     0.028 A 
ATOM     35  C   UNL     1     116.698 113.784  80.376  1.00  0.00     0.001 A 
ATOM     36  C   UNL     1     117.641 114.676  79.860  1.00  0.00     0.002 A 
ATOM     37  H   UNL     1     115.587 117.462  77.360  1.00  0.00     0.190 HD
ENDBRANCH  26  28
ENDBRANCH   4  26
TORSDOF 4
ENDMDL
MODEL 3
REMARK VINA RESULT:     -10.6      3.133      4.803
REMARK SMILES O=c1[nH][nH]c2ccc(-c3nc(Nc4n[nH]c5ccccc45)c4ccccc4n3)c([N+](=O)[O-])c12
REMARK SMILES IDX 10 1 28 2 9 3 11 4 22 5 27 6 23 7 26 8 24 9 25 10 8 11 1 12
REMARK SMILES IDX 2 13 3 14 33 15 4 16 29 17 5 18 6 19 7 20 30 23 31 24 32 25
REMARK SMILES IDX 12 26 13 28 14 29 21 30 15 31 16 32 20 33 17 34 19 35 18 36
REMARK H PARENT 3 21 4 22 12 27 15 37
ROOT
ATOM      1  N   UNL     1     108.134 111.203  76.302  1.00  0.00    -0.210 NA
ATOM      2  N   UNL     1     105.941 111.811  75.509  1.00  0.00    -0.228 NA
ATOM      3  C   UNL     1     107.231 111.455  75.341  1.00  0.00     0.169 A 
ATOM      4  C   UNL     1     107.665 111.329  77.559  1.00  0.00     0.143 A 
ATOM      5  C   UNL     1     106.357 111.691  77.868  1.00  0.00     0.043 A 
ATOM      6  C   UNL     1     105.506 111.929  76.777  1.00  0.00     0.076 A 
ATOM      7  C   UNL     1     105.892 111.817  79.189  1.00  0.00     0.014 A 
ATOM      8  C   UNL     1     104.190 112.293  77.046  1.00  0.00     0.029 A 
ATOM      9  C   UNL     1     104.571 112.182  79.429  1.00  0.00     0.001 A 
ATOM     10  C   UNL     1     103.720 112.420  78.357  1.00  0.00     0.002 A 
ENDROOT
BRANCH   3  11
ATOM     11  C   UNL     1     107.692 111.330  73.970  1.00  0.00     0.098 A 
ATOM     12  O   UNL     1     110.541 113.755  71.581  1.00  0.00    -0.267 OA
ATOM     13  C   UNL     1     109.910 112.765  71.262  1.00  0.00     0.278 A 
ATOM     14  N   UNL     1     109.892 112.109  70.040  1.00  0.00    -0.265 N 
ATOM     15  C   UNL     1     108.991 112.022  72.124  1.00  0.00     0.144 A 
ATOM     16  N   UNL     1     109.079 110.990  70.073  1.00  0.00    -0.297 N 
ATOM     17  C   UNL     1     108.616 112.228  73.435  1.00  0.00     0.295 A 
ATOM     18  C   UNL     1     108.487 110.993  71.331  1.00  0.00     0.074 A 
ATOM     19  C   UNL     1     107.586 110.093  71.864  1.00  0.00     0.030 A 
ATOM     20  C   UNL     1     107.183 110.272  73.193  1.00  0.00     0.021 A 
ATOM     21  H   UNL     1     110.406 112.328  69.196  1.00  0.00     0.191 HD
ATOM     22  H   UNL     1     109.371 110.139  69.616  1.00  0.00     0.188 HD
BRANCH  17  23
ATOM     23  N   UNL     1     109.151 113.303  74.196  1.00  0.00     0.064 N 
ATOM     24  O   UNL     1     110.189 113.109  74.874  1.00  0.00    -0.258 OA
ATOM     25  O   UNL     1     108.570 114.414  74.169  1.00  0.00    -0.258 OA
ENDBRANCH  17  23
ENDBRANCH   3  11
BRANCH   4  26
ATOM     26  N   UNL     1     108.582 111.074  78.608  1.00  0.00    -0.322 N 
ATOM     27  H   UNL     1     108.377 110.195  79.079  1.00  0.00     0.170 HD
BRANCH  26  28
ATOM     28  C   UNL     1     109.749 111.733  79.030  1.00  0.00     0.161 A 
ATOM     29  N   UNL     1     110.951 111.168  79.162  1.00  0.00    -0.157 NA
ATOM     30  C   UNL     1     109.748 113.104  79.362  1.00  0.00     0.044 A 
ATOM     31  N   UNL     1     111.726 112.183  79.579  1.00  0.00    -0.276 N 
ATOM     32  C   UNL     1     111.064 113.372  79.720  1.00  0.00     0.067 A 
ATOM     33  C   UNL     1     108.799 114.140  79.400  1.00  0.00     0.014 A 
ATOM     34  C   UNL     1     111.501 114.637  80.122  1.00  0.00     0.028 A 
ATOM     35  C   UNL     1     109.217 115.415  79.800  1.00  0.00     0.001 A 
ATOM     36  C   UNL     1     110.546 115.657  80.155  1.00  0.00     0.002 A 
ATOM     37  H   UNL     1     112.705 111.996  79.752  1.00  0.00     0.190 HD
ENDBRANCH  26  28
ENDBRANCH   4  26
TORSDOF 4
ENDMDL
MODEL 4
REMARK VINA RESULT:     -10.4      3.423      6.809
REMARK SMILES O=c1[nH][nH]c2ccc(-c3nc(Nc4n[nH]c5ccccc45)c4ccccc4n3)c([N+](=O)[O-])c12
REMARK SMILES IDX 10 1 28 2 9 3 11 4 22 5 27 6 23 7 26 8 24 9 25 10 8 11 1 12
REMARK SMILES IDX 2 13 3 14 33 15 4 16 29 17 5 18 6 19 7 20 30 23 31 24 32 25
REMARK SMILES IDX 12 26 13 28 14 29 21 30 15 31 16 32 20 33 17 34 19 35 18 36
REMARK H PARENT 3 21 4 22 12 27 15 37
ROOT
ATOM      1  N   UNL     1     108.787 112.120  76.650  1.00  0.00    -0.210 NA
ATOM      2  N   UNL     1     110.752 113.512  76.539  1.00  0.00    -0.228 NA
ATOM      3  C   UNL     1     109.931 112.543  76.086  1.00  0.00     0.169 A 
ATOM      4  C   UNL     1     108.456 112.757  77.790  1.00  0.00     0.143 A 
ATOM      5  C   UNL     1     109.215 113.772  78.363  1.00  0.00     0.043 A 
ATOM      6  C   UNL     1     110.391 114.126  77.680  1.00  0.00     0.076 A 
ATOM      7  C   UNL     1     108.848 114.421  79.555  1.00  0.00     0.014 A 
ATOM      8  C   UNL     1     111.177 115.139  78.222  1.00  0.00     0.029 A 
ATOM      9  C   UNL     1     109.653 115.431  80.073  1.00  0.00     0.001 A 
ATOM     10  C   UNL     1     110.818 115.790  79.407  1.00  0.00     0.002 A 
ENDROOT
BRANCH   3  11
ATOM     11  C   UNL     1     110.327 111.884  74.855  1.00  0.00     0.098 A 
ATOM     12  O   UNL     1     108.849 112.276  70.688  1.00  0.00    -0.267 OA
ATOM     13  C   UNL     1     109.731 111.567  71.132  1.00  0.00     0.278 A 
ATOM     14  N   UNL     1     110.531 110.657  70.457  1.00  0.00    -0.265 N 
ATOM     15  C   UNL     1     110.158 111.507  72.531  1.00  0.00     0.144 A 
ATOM     16  N   UNL     1     111.456 110.065  71.299  1.00  0.00    -0.297 N 
ATOM     17  C   UNL     1     109.707 112.187  73.643  1.00  0.00     0.295 A 
ATOM     18  C   UNL     1     111.167 110.547  72.571  1.00  0.00     0.074 A 
ATOM     19  C   UNL     1     111.794 110.259  73.766  1.00  0.00     0.030 A 
ATOM     20  C   UNL     1     111.362 110.931  74.917  1.00  0.00     0.021 A 
ATOM     21  H   UNL     1     110.533 110.424  69.472  1.00  0.00     0.191 HD
ATOM     22  H   UNL     1     112.402 109.910  70.982  1.00  0.00     0.188 HD
BRANCH  17  23
ATOM     23  N   UNL     1     108.663 113.147  73.548  1.00  0.00     0.064 N 
ATOM     24  O   UNL     1     108.963 114.354  73.387  1.00  0.00    -0.258 OA
ATOM     25  O   UNL     1     107.473 112.760  73.630  1.00  0.00    -0.258 OA
ENDBRANCH  17  23
ENDBRANCH   3  11
BRANCH   4  26
ATOM     26  N   UNL     1     107.256 112.345  78.423  1.00  0.00    -0.322 N 
ATOM     27  H   UNL     1     107.131 112.805  79.322  1.00  0.00     0.170 HD
BRANCH  26  28
ATOM     28  C   UNL     1     106.192 111.531  78.000  1.00  0.00     0.161 A 
ATOM     29  N   UNL     1     106.211 110.724  76.938  1.00  0.00    -0.157 NA
ATOM     30  C   UNL     1     104.964 111.497  78.693  1.00  0.00     0.044 A 
ATOM     31  N   UNL     1     104.989 110.168  76.950  1.00  0.00    -0.276 N 
ATOM     32  C   UNL     1     104.190 110.590  77.978  1.00  0.00     0.067 A 
ATOM     33  C   UNL     1     104.419 112.120  79.829  1.00  0.00     0.014 A 
ATOM     34  C   UNL     1     102.881 110.259  78.333  1.00  0.00     0.028 A 
ATOM     35  C   UNL     1     103.109 111.801  80.203  1.00  0.00     0.001 A 
ATOM     36  C   UNL     1     102.353 110.886  79.467  1.00  0.00     0.002 A 
ATOM     37  H   UNL     1     104.759 109.502  76.222  1.00  0.00     0.190 HD
ENDBRANCH  26  28
ENDBRANCH   4  26
TORSDOF 4
ENDMDL
MODEL 5
REMARK VINA RESULT:     -10.3      3.531      6.821
REMARK SMILES O=c1[nH][nH]c2ccc(-c3nc(Nc4n[nH]c5ccccc45)c4ccccc4n3)c([N+](=O)[O-])c12
REMARK SMILES IDX 10 1 28 2 9 3 11 4 22 5 27 6 23 7 26 8 24 9 25 10 8 11 1 12
REMARK SMILES IDX 2 13 3 14 33 15 4 16 29 17 5 18 6 19 7 20 30 23 31 24 32 25
REMARK SMILES IDX 12 26 13 28 14 29 21 30 15 31 16 32 20 33 17 34 19 35 18 36
REMARK H PARENT 3 21 4 22 12 27 15 37
ROOT
ATOM      1  N   UNL     1     108.263 112.928  76.233  1.00  0.00    -0.210 NA
ATOM      2  N   UNL     1     110.131 114.441  76.055  1.00  0.00    -0.228 NA
ATOM      3  C   UNL     1     109.247 113.549  75.563  1.00  0.00     0.169 A 
ATOM      4  C   UNL     1     108.179 113.257  77.537  1.00  0.00     0.143 A 
ATOM      5  C   UNL     1     109.029 114.161  78.167  1.00  0.00     0.043 A 
ATOM      6  C   UNL     1     110.019 114.746  77.360  1.00  0.00     0.076 A 
ATOM      7  C   UNL     1     108.921 114.488  79.530  1.00  0.00     0.014 A 
ATOM      8  C   UNL     1     110.889 115.656  77.955  1.00  0.00     0.029 A 
ATOM      9  C   UNL     1     109.803 115.402  80.098  1.00  0.00     0.001 A 
ATOM     10  C   UNL     1     110.787 115.986  79.310  1.00  0.00     0.002 A 
ENDROOT
BRANCH   3  11
ATOM     11  C   UNL     1     109.375 113.225  74.153  1.00  0.00     0.098 A 
ATOM     12  O   UNL     1     111.284 109.800  72.072  1.00  0.00    -0.267 OA
ATOM     13  C   UNL     1     110.698 110.759  71.607  1.00  0.00     0.278 A 
ATOM     14  N   UNL     1     110.466 111.068  70.274  1.00  0.00    -0.265 N 
ATOM     15  C   UNL     1     110.091 111.846  72.376  1.00  0.00     0.144 A 
ATOM     16  N   UNL     1     109.725 112.228  70.139  1.00  0.00    -0.297 N 
ATOM     17  C   UNL     1     110.025 112.063  73.736  1.00  0.00     0.295 A 
ATOM     18  C   UNL     1     109.565 112.722  71.429  1.00  0.00     0.074 A 
ATOM     19  C   UNL     1     108.906 113.863  71.841  1.00  0.00     0.030 A 
ATOM     20  C   UNL     1     108.819 114.116  73.215  1.00  0.00     0.021 A 
ATOM     21  H   UNL     1     110.733 110.548  69.449  1.00  0.00     0.191 HD
ATOM     22  H   UNL     1     108.995 112.284  69.445  1.00  0.00     0.188 HD
BRANCH  17  23
ATOM     23  N   UNL     1     110.592 111.142  74.659  1.00  0.00     0.064 N 
ATOM     24  O   UNL     1     109.856 110.264  75.168  1.00  0.00    -0.258 OA
ATOM     25  O   UNL     1     111.811 111.236  74.938  1.00  0.00    -0.258 OA
ENDBRANCH  17  23
ENDBRANCH   3  11
BRANCH   4  26
ATOM     26  N   UNL     1     107.156 112.627  78.287  1.00  0.00    -0.322 N 
ATOM     27  H   UNL     1     107.116 112.984  79.239  1.00  0.00     0.170 HD
BRANCH  26  28
ATOM     28  C   UNL     1     106.149 111.712  77.937  1.00  0.00     0.161 A 
ATOM     29  N   UNL     1     106.200 110.862  76.909  1.00  0.00    -0.157 NA
ATOM     30  C   UNL     1     104.949 111.611  78.672  1.00  0.00     0.044 A 
ATOM     31  N   UNL     1     105.029 110.211  76.987  1.00  0.00    -0.276 N 
ATOM     32  C   UNL     1     104.231 110.614  78.023  1.00  0.00     0.067 A 
ATOM     33  C   UNL     1     104.392 112.238  79.800  1.00  0.00     0.014 A 
ATOM     34  C   UNL     1     102.964 110.194  78.438  1.00  0.00     0.028 A 
ATOM     35  C   UNL     1     103.124 111.832  80.233  1.00  0.00     0.001 A 
ATOM     36  C   UNL     1     102.423 110.827  79.562  1.00  0.00     0.002 A 
ATOM     37  H   UNL     1     104.831 109.497  76.296  1.00  0.00     0.190 HD
ENDBRANCH  26  28
ENDBRANCH   4  26
TORSDOF 4
ENDMDL
MODEL 6
REMARK VINA RESULT:     -10.2      3.162      7.862
REMARK SMILES O=c1[nH][nH]c2ccc(-c3nc(Nc4n[nH]c5ccccc45)c4ccccc4n3)c([N+](=O)[O-])c12
REMARK SMILES IDX 10 1 28 2 9 3 11 4 22 5 27 6 23 7 26 8 24 9 25 10 8 11 1 12
REMARK SMILES IDX 2 13 3 14 33 15 4 16 29 17 5 18 6 19 7 20 30 23 31 24 32 25
REMARK SMILES IDX 12 26 13 28 14 29 21 30 15 31 16 32 20 33 17 34 19 35 18 36
REMARK H PARENT 3 21 4 22 12 27 15 37
ROOT
ATOM      1  N   UNL     1     108.549 112.636  76.566  1.00  0.00    -0.210 NA
ATOM      2  N   UNL     1     107.845 112.312  78.849  1.00  0.00    -0.228 NA
ATOM      3  C   UNL     1     108.766 112.524  77.887  1.00  0.00     0.169 A 
ATOM      4  C   UNL     1     107.258 112.518  76.199  1.00  0.00     0.143 A 
ATOM      5  C   UNL     1     106.213 112.298  77.091  1.00  0.00     0.043 A 
ATOM      6  C   UNL     1     106.566 112.199  78.447  1.00  0.00     0.076 A 
ATOM      7  C   UNL     1     104.873 112.179  76.683  1.00  0.00     0.014 A 
ATOM      8  C   UNL     1     105.547 111.979  79.370  1.00  0.00     0.029 A 
ATOM      9  C   UNL     1     103.875 111.960  77.627  1.00  0.00     0.001 A 
ATOM     10  C   UNL     1     104.212 111.860  78.971  1.00  0.00     0.002 A 
ENDROOT
BRANCH   3  11
ATOM     11  C   UNL     1     110.144 112.644  78.329  1.00  0.00     0.098 A 
ATOM     12  O   UNL     1     112.908 116.115  78.468  1.00  0.00    -0.267 OA
ATOM     13  C   UNL     1     113.097 114.961  78.804  1.00  0.00     0.278 A 
ATOM     14  N   UNL     1     114.250 114.390  79.323  1.00  0.00    -0.265 N 
ATOM     15  C   UNL     1     112.118 113.877  78.726  1.00  0.00     0.144 A 
ATOM     16  N   UNL     1     114.067 113.052  79.623  1.00  0.00    -0.297 N 
ATOM     17  C   UNL     1     110.812 113.868  78.283  1.00  0.00     0.295 A 
ATOM     18  C   UNL     1     112.782 112.743  79.190  1.00  0.00     0.074 A 
ATOM     19  C   UNL     1     112.117 111.535  79.253  1.00  0.00     0.030 A 
ATOM     20  C   UNL     1     110.789 111.489  78.810  1.00  0.00     0.021 A 
ATOM     21  H   UNL     1     115.138 114.829  79.525  1.00  0.00     0.191 HD
ATOM     22  H   UNL     1     114.459 112.665  80.469  1.00  0.00     0.188 HD
BRANCH  17  23
ATOM     23  N   UNL     1     110.186 115.052  77.807  1.00  0.00     0.064 N 
ATOM     24  O   UNL     1     109.533 115.759  78.611  1.00  0.00    -0.258 OA
ATOM     25  O   UNL     1     110.305 115.355  76.595  1.00  0.00    -0.258 OA
ENDBRANCH  17  23
ENDBRANCH   3  11
BRANCH   4  26
ATOM     26  N   UNL     1     106.978 112.628  74.814  1.00  0.00    -0.322 N 
ATOM     27  H   UNL     1     106.435 113.463  74.608  1.00  0.00     0.170 HD
BRANCH  26  28
ATOM     28  C   UNL     1     107.395 111.881  73.700  1.00  0.00     0.161 A 
ATOM     29  N   UNL     1     107.084 110.605  73.465  1.00  0.00    -0.157 NA
ATOM     30  C   UNL     1     108.211 112.441  72.694  1.00  0.00     0.044 A 
ATOM     31  N   UNL     1     107.701 110.345  72.302  1.00  0.00    -0.276 N 
ATOM     32  C   UNL     1     108.396 111.405  71.786  1.00  0.00     0.067 A 
ATOM     33  C   UNL     1     108.808 113.689  72.447  1.00  0.00     0.014 A 
ATOM     34  C   UNL     1     109.156 111.540  70.621  1.00  0.00     0.028 A 
ATOM     35  C   UNL     1     109.573 113.845  71.285  1.00  0.00     0.001 A 
ATOM     36  C   UNL     1     109.743 112.788  70.388  1.00  0.00     0.002 A 
ATOM     37  H   UNL     1     107.609 109.416  71.909  1.00  0.00     0.190 HD
ENDBRANCH  26  28
ENDBRANCH   4  26
TORSDOF 4
ENDMDL
MODEL 7
REMARK VINA RESULT:     -10.2      2.390      2.819
REMARK SMILES O=c1[nH][nH]c2ccc(-c3nc(Nc4n[nH]c5ccccc45)c4ccccc4n3)c([N+](=O)[O-])c12
REMARK SMILES IDX 10 1 28 2 9 3 11 4 22 5 27 6 23 7 26 8 24 9 25 10 8 11 1 12
REMARK SMILES IDX 2 13 3 14 33 15 4 16 29 17 5 18 6 19 7 20 30 23 31 24 32 25
REMARK SMILES IDX 12 26 13 28 14 29 21 30 15 31 16 32 20 33 17 34 19 35 18 36
REMARK H PARENT 3 21 4 22 12 27 15 37
ROOT
ATOM      1  N   UNL     1     111.378 113.911  77.285  1.00  0.00    -0.210 NA
ATOM      2  N   UNL     1     110.369 111.798  77.856  1.00  0.00    -0.228 NA
ATOM      3  C   UNL     1     110.693 112.790  77.002  1.00  0.00     0.169 A 
ATOM      4  C   UNL     1     111.767 114.021  78.569  1.00  0.00     0.143 A 
ATOM      5  C   UNL     1     111.497 113.070  79.548  1.00  0.00     0.043 A 
ATOM      6  C   UNL     1     110.773 111.941  79.131  1.00  0.00     0.076 A 
ATOM      7  C   UNL     1     111.915 113.208  80.884  1.00  0.00     0.014 A 
ATOM      8  C   UNL     1     110.483 110.967  80.083  1.00  0.00     0.029 A 
ATOM      9  C   UNL     1     111.611 112.218  81.813  1.00  0.00     0.001 A 
ATOM     10  C   UNL     1     110.895 111.097  81.412  1.00  0.00     0.002 A 
ENDROOT
BRANCH   3  11
ATOM     11  C   UNL     1     110.253 112.629  75.628  1.00  0.00     0.098 A 
ATOM     12  O   UNL     1     111.509 109.811  72.437  1.00  0.00    -0.267 OA
ATOM     13  C   UNL     1     110.669 110.691  72.406  1.00  0.00     0.278 A 
ATOM     14  N   UNL     1     109.862 111.078  71.347  1.00  0.00    -0.265 N 
ATOM     15  C   UNL     1     110.316 111.575  73.517  1.00  0.00     0.144 A 
ATOM     16  N   UNL     1     108.997 112.096  71.709  1.00  0.00    -0.297 N 
ATOM     17  C   UNL     1     110.803 111.646  74.805  1.00  0.00     0.295 A 
ATOM     18  C   UNL     1     109.336 112.429  73.015  1.00  0.00     0.074 A 
ATOM     19  C   UNL     1     108.778 113.391  73.833  1.00  0.00     0.030 A 
ATOM     20  C   UNL     1     109.249 113.492  75.148  1.00  0.00     0.021 A 
ATOM     21  H   UNL     1     109.816 110.694  70.412  1.00  0.00     0.191 HD
ATOM     22  H   UNL     1     108.041 112.087  71.384  1.00  0.00     0.188 HD
BRANCH  17  23
ATOM     23  N   UNL     1     111.814 110.758  75.263  1.00  0.00     0.064 N 
ATOM     24  O   UNL     1     113.014 111.113  75.184  1.00  0.00    -0.258 OA
ATOM     25  O   UNL     1     111.476 109.644  75.731  1.00  0.00    -0.258 OA
ENDBRANCH  17  23
ENDBRANCH   3  11
BRANCH   4  26
ATOM     26  N   UNL     1     112.493 115.188  78.916  1.00  0.00    -0.322 N 
ATOM     27  H   UNL     1     111.996 115.747  79.606  1.00  0.00     0.170 HD
BRANCH  26  28
ATOM     28  C   UNL     1     113.779 115.641  78.576  1.00  0.00     0.161 A 
ATOM     29  N   UNL     1     114.050 116.619  77.709  1.00  0.00    -0.157 NA
ATOM     30  C   UNL     1     114.939 115.077  79.147  1.00  0.00     0.044 A 
ATOM     31  N   UNL     1     115.391 116.685  77.726  1.00  0.00    -0.276 N 
ATOM     32  C   UNL     1     115.986 115.785  78.568  1.00  0.00     0.067 A 
ATOM     33  C   UNL     1     115.225 114.063  80.077  1.00  0.00     0.014 A 
ATOM     34  C   UNL     1     117.329 115.538  78.865  1.00  0.00     0.028 A 
ATOM     35  C   UNL     1     116.564 113.800  80.389  1.00  0.00     0.001 A 
ATOM     36  C   UNL     1     117.597 114.526  79.792  1.00  0.00     0.002 A 
ATOM     37  H   UNL     1     115.843 117.370  77.134  1.00  0.00     0.190 HD
ENDBRANCH  26  28
ENDBRANCH   4  26
TORSDOF 4
ENDMDL
MODEL 8
REMARK VINA RESULT:     -10.1      2.726      7.412
REMARK SMILES O=c1[nH][nH]c2ccc(-c3nc(Nc4n[nH]c5ccccc45)c4ccccc4n3)c([N+](=O)[O-])c12
REMARK SMILES IDX 10 1 28 2 9 3 11 4 22 5 27 6 23 7 26 8 24 9 25 10 8 11 1 12
REMARK SMILES IDX 2 13 3 14 33 15 4 16 29 17 5 18 6 19 7 20 30 23 31 24 32 25
REMARK SMILES IDX 12 26 13 28 14 29 21 30 15 31 16 32 20 33 17 34 19 35 18 36
REMARK H PARENT 3 21 4 22 12 27 15 37
ROOT
ATOM      1  N   UNL     1     109.178 113.479  76.401  1.00  0.00    -0.210 NA
ATOM      2  N   UNL     1     108.532 113.001  78.673  1.00  0.00    -0.228 NA
ATOM      3  C   UNL     1     109.392 113.428  77.726  1.00  0.00     0.169 A 
ATOM      4  C   UNL     1     107.963 113.048  76.012  1.00  0.00     0.143 A 
ATOM      5  C   UNL     1     106.986 112.583  76.888  1.00  0.00     0.043 A 
ATOM      6  C   UNL     1     107.327 112.578  78.250  1.00  0.00     0.076 A 
ATOM      7  C   UNL     1     105.724 112.139  76.457  1.00  0.00     0.014 A 
ATOM      8  C   UNL     1     106.376 112.119  79.157  1.00  0.00     0.029 A 
ATOM      9  C   UNL     1     104.792 111.686  77.386  1.00  0.00     0.001 A 
ATOM     10  C   UNL     1     105.118 111.676  78.736  1.00  0.00     0.002 A 
ENDROOT
BRANCH   3  11
ATOM     11  C   UNL     1     110.690 113.883  78.191  1.00  0.00     0.098 A 
ATOM     12  O   UNL     1     114.146 111.689  79.908  1.00  0.00    -0.267 OA
ATOM     13  C   UNL     1     114.018 112.878  79.683  1.00  0.00     0.278 A 
ATOM     14  N   UNL     1     114.923 113.903  79.914  1.00  0.00    -0.265 N 
ATOM     15  C   UNL     1     112.835 113.516  79.106  1.00  0.00     0.144 A 
ATOM     16  N   UNL     1     114.432 115.124  79.487  1.00  0.00    -0.297 N 
ATOM     17  C   UNL     1     111.632 112.984  78.691  1.00  0.00     0.295 A 
ATOM     18  C   UNL     1     113.133 114.877  79.060  1.00  0.00     0.074 A 
ATOM     19  C   UNL     1     112.208 115.765  78.548  1.00  0.00     0.030 A 
ATOM     20  C   UNL     1     110.975 115.259  78.117  1.00  0.00     0.021 A 
ATOM     21  H   UNL     1     115.857 113.849  80.300  1.00  0.00     0.191 HD
ATOM     22  H   UNL     1     115.041 115.777  79.015  1.00  0.00     0.188 HD
BRANCH  17  23
ATOM     23  N   UNL     1     111.375 111.588  78.773  1.00  0.00     0.064 N 
ATOM     24  O   UNL     1     111.005 111.103  79.869  1.00  0.00    -0.258 OA
ATOM     25  O   UNL     1     111.527 110.882  77.748  1.00  0.00    -0.258 OA
ENDBRANCH  17  23
ENDBRANCH   3  11
BRANCH   4  26
ATOM     26  N   UNL     1     107.691 113.082  74.622  1.00  0.00    -0.322 N 
ATOM     27  H   UNL     1     107.211 113.939  74.356  1.00  0.00     0.170 HD
BRANCH  26  28
ATOM     28  C   UNL     1     108.049 112.230  73.565  1.00  0.00     0.161 A 
ATOM     29  N   UNL     1     107.255 111.881  72.550  1.00  0.00    -0.157 NA
ATOM     30  C   UNL     1     109.332 111.649  73.482  1.00  0.00     0.044 A 
ATOM     31  N   UNL     1     108.033 111.073  71.812  1.00  0.00    -0.276 N 
ATOM     32  C   UNL     1     109.293 110.892  72.317  1.00  0.00     0.067 A 
ATOM     33  C   UNL     1     110.511 111.675  74.246  1.00  0.00     0.014 A 
ATOM     34  C   UNL     1     110.379 110.143  71.858  1.00  0.00     0.028 A 
ATOM     35  C   UNL     1     111.612 110.931  73.804  1.00  0.00     0.001 A 
ATOM     36  C   UNL     1     111.545 110.179  72.629  1.00  0.00     0.002 A 
ATOM     37  H   UNL     1     107.643 110.672  70.969  1.00  0.00     0.190 HD
ENDBRANCH  26  28
ENDBRANCH   4  26
TORSDOF 4
ENDMDL
MODEL 9
REMARK VINA RESULT:     -10.0      2.849      7.807
REMARK SMILES O=c1[nH][nH]c2ccc(-c3nc(Nc4n[nH]c5ccccc45)c4ccccc4n3)c([N+](=O)[O-])c12
REMARK SMILES IDX 10 1 28 2 9 3 11 4 22 5 27 6 23 7 26 8 24 9 25 10 8 11 1 12
REMARK SMILES IDX 2 13 3 14 33 15 4 16 29 17 5 18 6 19 7 20 30 23 31 24 32 25
REMARK SMILES IDX 12 26 13 28 14 29 21 30 15 31 16 32 20 33 17 34 19 35 18 36
REMARK H PARENT 3 21 4 22 12 27 15 37
ROOT
ATOM      1  N   UNL     1     108.898 113.434  76.345  1.00  0.00    -0.210 NA
ATOM      2  N   UNL     1     108.362 112.930  78.640  1.00  0.00    -0.228 NA
ATOM      3  C   UNL     1     109.167 113.387  77.660  1.00  0.00     0.169 A 
ATOM      4  C   UNL     1     107.682 112.964  76.005  1.00  0.00     0.143 A 
ATOM      5  C   UNL     1     106.758 112.465  76.918  1.00  0.00     0.043 A 
ATOM      6  C   UNL     1     107.155 112.468  78.266  1.00  0.00     0.076 A 
ATOM      7  C   UNL     1     105.494 111.980  76.538  1.00  0.00     0.014 A 
ATOM      8  C   UNL     1     106.257 111.976  79.209  1.00  0.00     0.029 A 
ATOM      9  C   UNL     1     104.617 111.495  77.503  1.00  0.00     0.001 A 
ATOM     10  C   UNL     1     104.999 111.493  78.838  1.00  0.00     0.002 A 
ENDROOT
BRANCH   3  11
ATOM     11  C   UNL     1     110.468 113.883  78.073  1.00  0.00     0.098 A 
ATOM     12  O   UNL     1     113.982 111.835  79.851  1.00  0.00    -0.267 OA
ATOM     13  C   UNL     1     113.835 113.007  79.559  1.00  0.00     0.278 A 
ATOM     14  N   UNL     1     114.731 114.054  79.712  1.00  0.00    -0.265 N 
ATOM     15  C   UNL     1     112.633 113.596  78.968  1.00  0.00     0.144 A 
ATOM     16  N   UNL     1     114.217 115.243  79.224  1.00  0.00    -0.297 N 
ATOM     17  C   UNL     1     111.430 113.027  78.608  1.00  0.00     0.295 A 
ATOM     18  C   UNL     1     112.913 114.955  78.836  1.00  0.00     0.074 A 
ATOM     19  C   UNL     1     111.968 115.801  78.290  1.00  0.00     0.030 A 
ATOM     20  C   UNL     1     110.734 115.257  77.913  1.00  0.00     0.021 A 
ATOM     21  H   UNL     1     115.672 114.034  80.084  1.00  0.00     0.191 HD
ATOM     22  H   UNL     1     114.808 115.874  78.703  1.00  0.00     0.188 HD
BRANCH  17  23
ATOM     23  N   UNL     1     111.192 111.636  78.777  1.00  0.00     0.064 N 
ATOM     24  O   UNL     1     111.333 110.872  77.792  1.00  0.00    -0.258 OA
ATOM     25  O   UNL     1     110.848 111.212  79.906  1.00  0.00    -0.258 OA
ENDBRANCH  17  23
ENDBRANCH   3  11
BRANCH   4  26
ATOM     26  N   UNL     1     107.352 112.993  74.627  1.00  0.00    -0.322 N 
ATOM     27  H   UNL     1     106.873 113.854  74.375  1.00  0.00     0.170 HD
BRANCH  26  28
ATOM     28  C   UNL     1     107.655 112.129  73.562  1.00  0.00     0.161 A 
ATOM     29  N   UNL     1     107.258 110.858  73.460  1.00  0.00    -0.157 NA
ATOM     30  C   UNL     1     108.434 112.549  72.464  1.00  0.00     0.044 A 
ATOM     31  N   UNL     1     107.785 110.462  72.290  1.00  0.00    -0.276 N 
ATOM     32  C   UNL     1     108.503 111.430  71.642  1.00  0.00     0.067 A 
ATOM     33  C   UNL     1     109.082 113.733  72.071  1.00  0.00     0.014 A 
ATOM     34  C   UNL     1     109.193 111.419  70.428  1.00  0.00     0.028 A 
ATOM     35  C   UNL     1     109.779 113.743  70.857  1.00  0.00     0.001 A 
ATOM     36  C   UNL     1     109.832 112.604  70.050  1.00  0.00     0.002 A 
ATOM     37  H   UNL     1     107.617 109.511  71.988  1.00  0.00     0.190 HD
ENDBRANCH  26  28
ENDBRANCH   4  26
TORSDOF 4
ENDMDL
MODEL 10
REMARK VINA RESULT:     -10.0      1.704      1.920
REMARK SMILES O=c1[nH][nH]c2ccc(-c3nc(Nc4n[nH]c5ccccc45)c4ccccc4n3)c([N+](=O)[O-])c12
REMARK SMILES IDX 10 1 28 2 9 3 11 4 22 5 27 6 23 7 26 8 24 9 25 10 8 11 1 12
REMARK SMILES IDX 2 13 3 14 33 15 4 16 29 17 5 18 6 19 7 20 30 23 31 24 32 25
REMARK SMILES IDX 12 26 13 28 14 29 21 30 15 31 16 32 20 33 17 34 19 35 18 36
REMARK H PARENT 3 21 4 22 12 27 15 37
ROOT
ATOM      1  N   UNL     1     111.746 112.805  76.995  1.00  0.00    -0.210 NA
ATOM      2  N   UNL     1     109.669 113.996  77.270  1.00  0.00    -0.228 NA
ATOM      3  C   UNL     1     110.561 113.269  76.567  1.00  0.00     0.169 A 
ATOM      4  C   UNL     1     112.044 113.120  78.271  1.00  0.00     0.143 A 
ATOM      5  C   UNL     1     111.211 113.863  79.102  1.00  0.00     0.043 A 
ATOM      6  C   UNL     1     109.998 114.292  78.540  1.00  0.00     0.076 A 
ATOM      7  C   UNL     1     111.544 114.179  80.431  1.00  0.00     0.014 A 
ATOM      8  C   UNL     1     109.138 115.039  79.342  1.00  0.00     0.029 A 
ATOM      9  C   UNL     1     110.665 114.926  81.209  1.00  0.00     0.001 A 
ATOM     10  C   UNL     1     109.462 115.356  80.664  1.00  0.00     0.002 A 
ENDROOT
BRANCH   3  11
ATOM     11  C   UNL     1     110.199 112.953  75.197  1.00  0.00     0.098 A 
ATOM     12  O   UNL     1     111.383 109.612  72.524  1.00  0.00    -0.267 OA
ATOM     13  C   UNL     1     110.637 110.549  72.309  1.00  0.00     0.278 A 
ATOM     14  N   UNL     1     109.943 110.851  71.146  1.00  0.00    -0.265 N 
ATOM     15  C   UNL     1     110.298 111.609  73.259  1.00  0.00     0.144 A 
ATOM     16  N   UNL     1     109.159 111.981  71.298  1.00  0.00    -0.297 N 
ATOM     17  C   UNL     1     110.704 111.819  74.560  1.00  0.00     0.295 A 
ATOM     18  C   UNL     1     109.442 112.466  72.570  1.00  0.00     0.074 A 
ATOM     19  C   UNL     1     108.927 113.578  73.204  1.00  0.00     0.030 A 
ATOM     20  C   UNL     1     109.318 113.824  74.527  1.00  0.00     0.021 A 
ATOM     21  H   UNL     1     109.922 110.344  70.271  1.00  0.00     0.191 HD
ATOM     22  H   UNL     1     108.230 112.010  70.903  1.00  0.00     0.188 HD
BRANCH  17  23
ATOM     23  N   UNL     1     111.591 110.920  75.212  1.00  0.00     0.064 N 
ATOM     24  O   UNL     1     112.826 111.060  75.046  1.00  0.00    -0.258 OA
ATOM     25  O   UNL     1     111.113 110.012  75.933  1.00  0.00    -0.258 OA
ENDBRANCH  17  23
ENDBRANCH   3  11
BRANCH   4  26
ATOM     26  N   UNL     1     113.286 112.653  78.768  1.00  0.00    -0.322 N 
ATOM     27  H   UNL     1     113.161 111.888  79.427  1.00  0.00     0.170 HD
BRANCH  26  28
ATOM     28  C   UNL     1     114.616 112.967  78.444  1.00  0.00     0.161 A 
ATOM     29  N   UNL     1     115.285 112.501  77.388  1.00  0.00    -0.157 NA
ATOM     30  C   UNL     1     115.387 113.839  79.241  1.00  0.00     0.044 A 
ATOM     31  N   UNL     1     116.491 113.078  77.506  1.00  0.00    -0.276 N 
ATOM     32  C   UNL     1     116.619 113.894  78.598  1.00  0.00     0.067 A 
ATOM     33  C   UNL     1     115.192 114.583  80.417  1.00  0.00     0.014 A 
ATOM     34  C   UNL     1     117.689 114.659  79.066  1.00  0.00     0.028 A 
ATOM     35  C   UNL     1     116.252 115.357  80.903  1.00  0.00     0.001 A 
ATOM     36  C   UNL     1     117.479 115.394  80.238  1.00  0.00     0.002 A 
ATOM     37  H   UNL     1     117.191 112.873  76.804  1.00  0.00     0.190 HD
ENDBRANCH  26  28
ENDBRANCH   4  26
TORSDOF 4
ENDMDL
MODEL 11
REMARK VINA RESULT:      -9.9      1.771      2.230
REMARK SMILES O=c1[nH][nH]c2ccc(-c3nc(Nc4n[nH]c5ccccc45)c4ccccc4n3)c([N+](=O)[O-])c12
REMARK SMILES IDX 10 1 28 2 9 3 11 4 22 5 27 6 23 7 26 8 24 9 25 10 8 11 1 12
REMARK SMILES IDX 2 13 3 14 33 15 4 16 29 17 5 18 6 19 7 20 30 23 31 24 32 25
REMARK SMILES IDX 12 26 13 28 14 29 21 30 15 31 16 32 20 33 17 34 19 35 18 36
REMARK H PARENT 3 21 4 22 12 27 15 37
ROOT
ATOM      1  N   UNL     1     110.161 111.736  76.946  1.00  0.00    -0.210 NA
ATOM      2  N   UNL     1     109.225 113.852  76.271  1.00  0.00    -0.228 NA
ATOM      3  C   UNL     1     109.670 112.600  76.042  1.00  0.00     0.169 A 
ATOM      4  C   UNL     1     110.196 112.206  78.208  1.00  0.00     0.143 A 
ATOM      5  C   UNL     1     109.768 113.478  78.577  1.00  0.00     0.043 A 
ATOM      6  C   UNL     1     109.275 114.289  77.542  1.00  0.00     0.076 A 
ATOM      7  C   UNL     1     109.816 113.945  79.902  1.00  0.00     0.014 A 
ATOM      8  C   UNL     1     108.837 115.569  77.872  1.00  0.00     0.029 A 
ATOM      9  C   UNL     1     109.370 115.228  80.203  1.00  0.00     0.001 A 
ATOM     10  C   UNL     1     108.881 116.040  79.188  1.00  0.00     0.002 A 
ENDROOT
BRANCH   3  11
ATOM     11  C   UNL     1     109.613 112.136  74.668  1.00  0.00     0.098 A 
ATOM     12  O   UNL     1     106.540 109.815  72.460  1.00  0.00    -0.267 OA
ATOM     13  C   UNL     1     107.603 110.259  72.070  1.00  0.00     0.278 A 
ATOM     14  N   UNL     1     108.173 110.154  70.809  1.00  0.00    -0.265 N 
ATOM     15  C   UNL     1     108.558 111.022  72.874  1.00  0.00     0.144 A 
ATOM     16  N   UNL     1     109.380 110.827  70.736  1.00  0.00    -0.297 N 
ATOM     17  C   UNL     1     108.516 111.417  74.194  1.00  0.00     0.295 A 
ATOM     18  C   UNL     1     109.628 111.292  72.023  1.00  0.00     0.074 A 
ATOM     19  C   UNL     1     110.707 112.019  72.484  1.00  0.00     0.030 A 
ATOM     20  C   UNL     1     110.698 112.436  73.821  1.00  0.00     0.021 A 
ATOM     21  H   UNL     1     107.804 109.700  69.984  1.00  0.00     0.191 HD
ATOM     22  H   UNL     1     109.610 111.365  69.913  1.00  0.00     0.188 HD
BRANCH  17  23
ATOM     23  N   UNL     1     107.404 111.103  75.023  1.00  0.00     0.064 N 
ATOM     24  O   UNL     1     106.421 111.881  75.040  1.00  0.00    -0.258 OA
ATOM     25  O   UNL     1     107.440 110.057  75.714  1.00  0.00    -0.258 OA
ENDBRANCH  17  23
ENDBRANCH   3  11
BRANCH   4  26
ATOM     26  N   UNL     1     110.707 111.330  79.199  1.00  0.00    -0.322 N 
ATOM     27  H   UNL     1     110.024 110.624  79.462  1.00  0.00     0.170 HD
BRANCH  26  28
ATOM     28  C   UNL     1     111.978 111.196  79.781  1.00  0.00     0.161 A 
ATOM     29  N   UNL     1     112.330 110.255  80.661  1.00  0.00    -0.157 NA
ATOM     30  C   UNL     1     113.034 112.079  79.471  1.00  0.00     0.044 A 
ATOM     31  N   UNL     1     113.618 110.535  80.915  1.00  0.00    -0.276 N 
ATOM     32  C   UNL     1     114.102 111.619  80.234  1.00  0.00     0.067 A 
ATOM     33  C   UNL     1     113.212 113.201  78.644  1.00  0.00     0.014 A 
ATOM     34  C   UNL     1     115.362 112.222  80.221  1.00  0.00     0.028 A 
ATOM     35  C   UNL     1     114.467 113.820  78.616  1.00  0.00     0.001 A 
ATOM     36  C   UNL     1     115.523 113.337  79.393  1.00  0.00     0.002 A 
ATOM     37  H   UNL     1     114.115 109.945  81.570  1.00  0.00     0.190 HD
ENDBRANCH  26  28
ENDBRANCH   4  26
TORSDOF 4
ENDMDL
MODEL 12
REMARK VINA RESULT:      -9.8      2.938      7.651
REMARK SMILES O=c1[nH][nH]c2ccc(-c3nc(Nc4n[nH]c5ccccc45)c4ccccc4n3)c([N+](=O)[O-])c12
REMARK SMILES IDX 10 1 28 2 9 3 11 4 22 5 27 6 23 7 26 8 24 9 25 10 8 11 1 12
REMARK SMILES IDX 2 13 3 14 33 15 4 16 29 17 5 18 6 19 7 20 30 23 31 24 32 25
REMARK SMILES IDX 12 26 13 28 14 29 21 30 15 31 16 32 20 33 17 34 19 35 18 36
REMARK H PARENT 3 21 4 22 12 27 15 37
ROOT
ATOM      1  N   UNL     1     109.058 111.170  76.947  1.00  0.00    -0.210 NA
ATOM      2  N   UNL     1     108.024 112.120  78.906  1.00  0.00    -0.228 NA
ATOM      3  C   UNL     1     109.078 111.832  78.116  1.00  0.00     0.169 A 
ATOM      4  C   UNL     1     107.836 110.765  76.553  1.00  0.00     0.143 A 
ATOM      5  C   UNL     1     106.669 110.997  77.276  1.00  0.00     0.043 A 
ATOM      6  C   UNL     1     106.818 111.700  78.482  1.00  0.00     0.076 A 
ATOM      7  C   UNL     1     105.404 110.563  76.843  1.00  0.00     0.014 A 
ATOM      8  C   UNL     1     105.673 111.951  79.234  1.00  0.00     0.029 A 
ATOM      9  C   UNL     1     104.277 110.829  77.614  1.00  0.00     0.001 A 
ATOM     10  C   UNL     1     104.411 111.523  78.809  1.00  0.00     0.002 A 
ENDROOT
BRANCH   3  11
ATOM     11  C   UNL     1     110.376 112.288  78.580  1.00  0.00     0.098 A 
ATOM     12  O   UNL     1     112.429 116.207  78.222  1.00  0.00    -0.267 OA
ATOM     13  C   UNL     1     112.806 115.182  78.758  1.00  0.00     0.278 A 
ATOM     14  N   UNL     1     114.007 114.937  79.408  1.00  0.00    -0.265 N 
ATOM     15  C   UNL     1     112.054 113.929  78.831  1.00  0.00     0.144 A 
ATOM     16  N   UNL     1     114.056 113.656  79.926  1.00  0.00    -0.297 N 
ATOM     17  C   UNL     1     110.806 113.595  78.349  1.00  0.00     0.295 A 
ATOM     18  C   UNL     1     112.884 113.037  79.507  1.00  0.00     0.074 A 
ATOM     19  C   UNL     1     112.453 111.748  79.751  1.00  0.00     0.030 A 
ATOM     20  C   UNL     1     111.190 111.374  79.276  1.00  0.00     0.021 A 
ATOM     21  H   UNL     1     114.782 115.568  79.564  1.00  0.00     0.191 HD
ATOM     22  H   UNL     1     114.454 113.495  80.840  1.00  0.00     0.188 HD
BRANCH  17  23
ATOM     23  N   UNL     1     110.005 114.542  77.654  1.00  0.00     0.064 N 
ATOM     24  O   UNL     1     110.091 114.608  76.405  1.00  0.00    -0.258 OA
ATOM     25  O   UNL     1     109.235 115.284  78.311  1.00  0.00    -0.258 OA
ENDBRANCH  17  23
ENDBRANCH   3  11
BRANCH   4  26
ATOM     26  N   UNL     1     107.765 110.061  75.325  1.00  0.00    -0.322 N 
ATOM     27  H   UNL     1     107.646 109.061  75.474  1.00  0.00     0.170 HD
BRANCH  26  28
ATOM     28  C   UNL     1     107.717 110.489  73.988  1.00  0.00     0.161 A 
ATOM     29  N   UNL     1     106.804 110.114  73.089  1.00  0.00    -0.157 NA
ATOM     30  C   UNL     1     108.668 111.388  73.462  1.00  0.00     0.044 A 
ATOM     31  N   UNL     1     107.171 110.778  71.981  1.00  0.00    -0.276 N 
ATOM     32  C   UNL     1     108.282 111.560  72.137  1.00  0.00     0.067 A 
ATOM     33  C   UNL     1     109.797 112.071  73.945  1.00  0.00     0.014 A 
ATOM     34  C   UNL     1     108.969 112.389  71.246  1.00  0.00     0.028 A 
ATOM     35  C   UNL     1     110.499 112.907  73.068  1.00  0.00     0.001 A 
ATOM     36  C   UNL     1     110.090 113.062  71.741  1.00  0.00     0.002 A 
ATOM     37  H   UNL     1     106.616 110.653  71.143  1.00  0.00     0.190 HD
ENDBRANCH  26  28
ENDBRANCH   4  26
TORSDOF 4
ENDMDL
MODEL 13
REMARK VINA RESULT:      -9.8      2.664      3.442
REMARK SMILES O=c1[nH][nH]c2ccc(-c3nc(Nc4n[nH]c5ccccc45)c4ccccc4n3)c([N+](=O)[O-])c12
REMARK SMILES IDX 10 1 28 2 9 3 11 4 22 5 27 6 23 7 26 8 24 9 25 10 8 11 1 12
REMARK SMILES IDX 2 13 3 14 33 15 4 16 29 17 5 18 6 19 7 20 30 23 31 24 32 25
REMARK SMILES IDX 12 26 13 28 14 29 21 30 15 31 16 32 20 33 17 34 19 35 18 36
REMARK H PARENT 3 21 4 22 12 27 15 37
ROOT
ATOM      1  N   UNL     1     108.898 111.189  77.282  1.00  0.00    -0.210 NA
ATOM      2  N   UNL     1     108.291 113.268  76.224  1.00  0.00    -0.228 NA
ATOM      3  C   UNL     1     108.419 111.926  76.267  1.00  0.00     0.169 A 
ATOM      4  C   UNL     1     109.282 111.902  78.359  1.00  0.00     0.143 A 
ATOM      5  C   UNL     1     109.203 113.288  78.443  1.00  0.00     0.043 A 
ATOM      6  C   UNL     1     108.685 113.948  77.316  1.00  0.00     0.076 A 
ATOM      7  C   UNL     1     109.611 114.009  79.579  1.00  0.00     0.014 A 
ATOM      8  C   UNL     1     108.589 115.336  77.363  1.00  0.00     0.029 A 
ATOM      9  C   UNL     1     109.503 115.396  79.597  1.00  0.00     0.001 A 
ATOM     10  C   UNL     1     108.992 116.060  78.489  1.00  0.00     0.002 A 
ENDROOT
BRANCH   3  11
ATOM     11  C   UNL     1     107.993 111.200  75.084  1.00  0.00     0.098 A 
ATOM     12  O   UNL     1     109.252 111.473  70.836  1.00  0.00    -0.267 OA
ATOM     13  C   UNL     1     108.429 110.742  71.354  1.00  0.00     0.278 A 
ATOM     14  N   UNL     1     107.629 109.780  70.755  1.00  0.00    -0.265 N 
ATOM     15  C   UNL     1     108.080 110.718  72.775  1.00  0.00     0.144 A 
ATOM     16  N   UNL     1     106.842 109.119  71.682  1.00  0.00    -0.297 N 
ATOM     17  C   UNL     1     108.553 111.463  73.834  1.00  0.00     0.295 A 
ATOM     18  C   UNL     1     107.084 109.751  72.897  1.00  0.00     0.074 A 
ATOM     19  C   UNL     1     106.540 109.477  74.136  1.00  0.00     0.030 A 
ATOM     20  C   UNL     1     106.998 110.215  75.235  1.00  0.00     0.021 A 
ATOM     21  H   UNL     1     107.591 109.504  69.783  1.00  0.00     0.191 HD
ATOM     22  H   UNL     1     106.706 108.121  71.611  1.00  0.00     0.188 HD
BRANCH  17  23
ATOM     23  N   UNL     1     109.562 112.448  73.652  1.00  0.00     0.064 N 
ATOM     24  O   UNL     1     109.226 113.602  73.297  1.00  0.00    -0.258 OA
ATOM     25  O   UNL     1     110.760 112.132  73.851  1.00  0.00    -0.258 OA
ENDBRANCH  17  23
ENDBRANCH   3  11
BRANCH   4  26
ATOM     26  N   UNL     1     109.796 111.167  79.457  1.00  0.00    -0.322 N 
ATOM     27  H   UNL     1     109.135 110.462  79.777  1.00  0.00     0.170 HD
BRANCH  26  28
ATOM     28  C   UNL     1     111.049 111.160  80.090  1.00  0.00     0.161 A 
ATOM     29  N   UNL     1     111.291 110.706  81.321  1.00  0.00    -0.157 NA
ATOM     30  C   UNL     1     112.207 111.651  79.450  1.00  0.00     0.044 A 
ATOM     31  N   UNL     1     112.610 110.905  81.472  1.00  0.00    -0.276 N 
ATOM     32  C   UNL     1     113.220 111.471  80.385  1.00  0.00     0.067 A 
ATOM     33  C   UNL     1     112.515 112.222  78.203  1.00  0.00     0.014 A 
ATOM     34  C   UNL     1     114.548 111.831  80.147  1.00  0.00     0.028 A 
ATOM     35  C   UNL     1     113.840 112.589  77.945  1.00  0.00     0.001 A 
ATOM     36  C   UNL     1     114.839 112.396  78.902  1.00  0.00     0.002 A 
ATOM     37  H   UNL     1     113.038 110.632  82.348  1.00  0.00     0.190 HD
ENDBRANCH  26  28
ENDBRANCH   4  26
TORSDOF 4
ENDMDL
MODEL 14
REMARK VINA RESULT:      -9.7      1.630      2.122
REMARK SMILES O=c1[nH][nH]c2ccc(-c3nc(Nc4n[nH]c5ccccc45)c4ccccc4n3)c([N+](=O)[O-])c12
REMARK SMILES IDX 10 1 28 2 9 3 11 4 22 5 27 6 23 7 26 8 24 9 25 10 8 11 1 12
REMARK SMILES IDX 2 13 3 14 33 15 4 16 29 17 5 18 6 19 7 20 30 23 31 24 32 25
REMARK SMILES IDX 12 26 13 28 14 29 21 30 15 31 16 32 20 33 17 34 19 35 18 36
REMARK H PARENT 3 21 4 22 12 27 15 37
ROOT
ATOM      1  N   UNL     1     110.652 111.793  77.421  1.00  0.00    -0.210 NA
ATOM      2  N   UNL     1     108.717 113.195  77.737  1.00  0.00    -0.228 NA
ATOM      3  C   UNL     1     109.405 112.204  77.135  1.00  0.00     0.169 A 
ATOM      4  C   UNL     1     111.247 112.465  78.425  1.00  0.00     0.143 A 
ATOM      5  C   UNL     1     110.647 113.506  79.127  1.00  0.00     0.043 A 
ATOM      6  C   UNL     1     109.341 113.845  78.735  1.00  0.00     0.076 A 
ATOM      7  C   UNL     1     111.290 114.193  80.172  1.00  0.00     0.014 A 
ATOM      8  C   UNL     1     108.708 114.882  79.415  1.00  0.00     0.029 A 
ATOM      9  C   UNL     1     110.632 115.225  80.834  1.00  0.00     0.001 A 
ATOM     10  C   UNL     1     109.340 115.570  80.455  1.00  0.00     0.002 A 
ENDROOT
BRANCH   3  11
ATOM     11  C   UNL     1     108.725 111.507  76.059  1.00  0.00     0.098 A 
ATOM     12  O   UNL     1     109.221 111.678  71.651  1.00  0.00    -0.267 OA
ATOM     13  C   UNL     1     108.454 111.009  72.318  1.00  0.00     0.278 A 
ATOM     14  N   UNL     1     107.495 110.106  71.886  1.00  0.00    -0.265 N 
ATOM     15  C   UNL     1     108.364 111.014  73.778  1.00  0.00     0.144 A 
ATOM     16  N   UNL     1     106.842 109.505  72.948  1.00  0.00    -0.297 N 
ATOM     17  C   UNL     1     109.070 111.727  74.725  1.00  0.00     0.295 A 
ATOM     18  C   UNL     1     107.340 110.122  74.090  1.00  0.00     0.074 A 
ATOM     19  C   UNL     1     107.009 109.890  75.410  1.00  0.00     0.030 A 
ATOM     20  C   UNL     1     107.706 110.597  76.399  1.00  0.00     0.021 A 
ATOM     21  H   UNL     1     107.265 109.831  70.940  1.00  0.00     0.191 HD
ATOM     22  H   UNL     1     106.626 108.520  72.917  1.00  0.00     0.188 HD
BRANCH  17  23
ATOM     23  N   UNL     1     110.097 112.636  74.351  1.00  0.00     0.064 N 
ATOM     24  O   UNL     1     109.821 113.855  74.251  1.00  0.00    -0.258 OA
ATOM     25  O   UNL     1     111.249 112.192  74.131  1.00  0.00    -0.258 OA
ENDBRANCH  17  23
ENDBRANCH   3  11
BRANCH   4  26
ATOM     26  N   UNL     1     112.564 112.067  78.764  1.00  0.00    -0.322 N 
ATOM     27  H   UNL     1     112.563 111.295  79.426  1.00  0.00     0.170 HD
BRANCH  26  28
ATOM     28  C   UNL     1     113.825 112.457  78.284  1.00  0.00     0.161 A 
ATOM     29  N   UNL     1     114.404 112.000  77.170  1.00  0.00    -0.157 NA
ATOM     30  C   UNL     1     114.620 113.402  78.966  1.00  0.00     0.044 A 
ATOM     31  N   UNL     1     115.574 112.658  77.137  1.00  0.00    -0.276 N 
ATOM     32  C   UNL     1     115.766 113.515  78.187  1.00  0.00     0.067 A 
ATOM     33  C   UNL     1     114.506 114.170  80.137  1.00  0.00     0.014 A 
ATOM     34  C   UNL     1     116.827 114.363  78.511  1.00  0.00     0.028 A 
ATOM     35  C   UNL     1     115.558 115.027  80.481  1.00  0.00     0.001 A 
ATOM     36  C   UNL     1     116.698 115.121  79.680  1.00  0.00     0.002 A 
ATOM     37  H   UNL     1     116.203 112.475  76.366  1.00  0.00     0.190 HD
ENDBRANCH  26  28
ENDBRANCH   4  26
TORSDOF 4
ENDMDL
MODEL 15
REMARK VINA RESULT:      -9.7      2.889      4.574
REMARK SMILES O=c1[nH][nH]c2ccc(-c3nc(Nc4n[nH]c5ccccc45)c4ccccc4n3)c([N+](=O)[O-])c12
REMARK SMILES IDX 10 1 28 2 9 3 11 4 22 5 27 6 23 7 26 8 24 9 25 10 8 11 1 12
REMARK SMILES IDX 2 13 3 14 33 15 4 16 29 17 5 18 6 19 7 20 30 23 31 24 32 25
REMARK SMILES IDX 12 26 13 28 14 29 21 30 15 31 16 32 20 33 17 34 19 35 18 36
REMARK H PARENT 3 21 4 22 12 27 15 37
ROOT
ATOM      1  N   UNL     1     108.781 112.132  77.349  1.00  0.00    -0.210 NA
ATOM      2  N   UNL     1     107.230 110.603  76.316  1.00  0.00    -0.228 NA
ATOM      3  C   UNL     1     108.423 111.221  76.428  1.00  0.00     0.169 A 
ATOM      4  C   UNL     1     107.818 112.436  78.241  1.00  0.00     0.143 A 
ATOM      5  C   UNL     1     106.547 111.870  78.235  1.00  0.00     0.043 A 
ATOM      6  C   UNL     1     106.291 110.930  77.223  1.00  0.00     0.076 A 
ATOM      7  C   UNL     1     105.559 112.205  79.178  1.00  0.00     0.014 A 
ATOM      8  C   UNL     1     105.030 110.343  77.186  1.00  0.00     0.029 A 
ATOM      9  C   UNL     1     104.307 111.601  79.117  1.00  0.00     0.001 A 
ATOM     10  C   UNL     1     104.042 110.670  78.120  1.00  0.00     0.002 A 
ENDROOT
BRANCH   3  11
ATOM     11  C   UNL     1     109.429 110.863  75.446  1.00  0.00     0.098 A 
ATOM     12  O   UNL     1     109.470 111.158  71.017  1.00  0.00    -0.267 OA
ATOM     13  C   UNL     1     110.329 110.745  71.773  1.00  0.00     0.278 A 
ATOM     14  N   UNL     1     111.579 110.229  71.462  1.00  0.00    -0.265 N 
ATOM     15  C   UNL     1     110.229 110.689  73.232  1.00  0.00     0.144 A 
ATOM     16  N   UNL     1     112.293 109.900  72.600  1.00  0.00    -0.297 N 
ATOM     17  C   UNL     1     109.210 111.062  74.082  1.00  0.00     0.295 A 
ATOM     18  C   UNL     1     111.428 110.125  73.665  1.00  0.00     0.074 A 
ATOM     19  C   UNL     1     111.654 109.944  75.014  1.00  0.00     0.030 A 
ATOM     20  C   UNL     1     110.640 110.311  75.908  1.00  0.00     0.021 A 
ATOM     21  H   UNL     1     112.007 110.113  70.553  1.00  0.00     0.191 HD
ATOM     22  H   UNL     1     113.281 110.104  72.654  1.00  0.00     0.188 HD
BRANCH  17  23
ATOM     23  N   UNL     1     108.001 111.621  73.586  1.00  0.00     0.064 N 
ATOM     24  O   UNL     1     107.078 110.850  73.231  1.00  0.00    -0.258 OA
ATOM     25  O   UNL     1     107.893 112.868  73.518  1.00  0.00    -0.258 OA
ENDBRANCH  17  23
ENDBRANCH   3  11
BRANCH   4  26
ATOM     26  N   UNL     1     108.149 113.393  79.232  1.00  0.00    -0.322 N 
ATOM     27  H   UNL     1     107.425 113.461  79.943  1.00  0.00     0.170 HD
BRANCH  26  28
ATOM     28  C   UNL     1     109.305 114.157  79.464  1.00  0.00     0.161 A 
ATOM     29  N   UNL     1     109.366 115.490  79.451  1.00  0.00    -0.157 NA
ATOM     30  C   UNL     1     110.549 113.554  79.744  1.00  0.00     0.044 A 
ATOM     31  N   UNL     1     110.656 115.744  79.725  1.00  0.00    -0.276 N 
ATOM     32  C   UNL     1     111.421 114.624  79.911  1.00  0.00     0.067 A 
ATOM     33  C   UNL     1     111.037 112.242  79.875  1.00  0.00     0.014 A 
ATOM     34  C   UNL     1     112.776 114.464  80.207  1.00  0.00     0.028 A 
ATOM     35  C   UNL     1     112.393 112.060  80.172  1.00  0.00     0.001 A 
ATOM     36  C   UNL     1     113.247 113.153  80.335  1.00  0.00     0.002 A 
ATOM     37  H   UNL     1     110.953 116.710  79.770  1.00  0.00     0.190 HD
ENDBRANCH  26  28
ENDBRANCH   4  26
TORSDOF 4
ENDMDL
