MODEL 1
REMARK VINA RESULT:     -11.0      0.000      0.000
REMARK SMILES O=C1c2ccccc2-c2ccc(C(=O)N3CCN(Cc4ccccc4)CC3)cc21
REMARK SMILES IDX 14 1 18 2 15 3 17 4 26 5 16 6 27 7 13 8 12 9 28 10 11 11
REMARK SMILES IDX 29 12 10 13 9 14 2 15 8 16 1 17 3 18 7 19 4 20 6 21 5 22
REMARK SMILES IDX 19 23 20 24 21 25 25 26 22 27 24 28 23 29
REMARK H PARENT
ROOT
ATOM      1  O   UNL     1     113.152 116.221  78.213  1.00  0.00    -0.269 OA
ATOM      2  N   UNL     1     110.009 112.353  78.279  1.00  0.00    -0.296 NA
ATOM      3  N   UNL     1     112.096 114.232  78.842  1.00  0.00    -0.336 N 
ATOM      4  C   UNL     1     111.375 111.885  78.549  1.00  0.00     0.106 C 
ATOM      5  C   UNL     1     110.036 113.660  77.607  1.00  0.00     0.106 C 
ATOM      6  C   UNL     1     112.138 112.885  79.421  1.00  0.00     0.135 C 
ATOM      7  C   UNL     1     110.760 114.693  78.468  1.00  0.00     0.135 C 
ATOM      8  C   UNL     1     113.188 115.091  78.699  1.00  0.00     0.253 C 
ENDROOT
BRANCH   8   9
ATOM      9  C   UNL     1     114.500 114.628  79.171  1.00  0.00     0.040 A 
ATOM     10  C   UNL     1     115.058 115.191  80.319  1.00  0.00     0.026 A 
ATOM     11  C   UNL     1     115.179 113.623  78.457  1.00  0.00     0.014 A 
ATOM     12  C   UNL     1     116.293 114.715  80.711  1.00  0.00     0.031 A 
ATOM     13  C   UNL     1     116.433 113.158  78.876  1.00  0.00     0.010 A 
ATOM     14  C   UNL     1     116.990 113.713  80.014  1.00  0.00    -0.006 A 
ATOM     15  C   UNL     1     117.120 115.111  81.870  1.00  0.00     0.194 C 
ATOM     16  C   UNL     1     118.243 113.450  80.688  1.00  0.00    -0.006 A 
ATOM     17  O   UNL     1     116.849 115.950  82.701  1.00  0.00    -0.289 OA
ATOM     18  C   UNL     1     118.344 114.285  81.814  1.00  0.00     0.030 A 
ATOM     19  C   UNL     1     119.266 112.565  80.399  1.00  0.00     0.009 A 
ATOM     20  C   UNL     1     119.428 114.275  82.669  1.00  0.00     0.013 A 
ATOM     21  C   UNL     1     120.378 112.535  81.251  1.00  0.00     0.001 A 
ATOM     22  C   UNL     1     120.457 113.381  82.374  1.00  0.00     0.001 A 
ENDBRANCH   8   9
BRANCH   2  23
ATOM     23  C   UNL     1     109.281 111.375  77.470  1.00  0.00     0.120 C 
BRANCH  23  24
ATOM     24  C   UNL     1     107.798 111.602  77.515  1.00  0.00    -0.034 A 
ATOM     25  C   UNL     1     107.114 111.980  76.359  1.00  0.00     0.005 A 
ATOM     26  C   UNL     1     107.102 111.432  78.712  1.00  0.00     0.005 A 
ATOM     27  C   UNL     1     105.736 112.191  76.401  1.00  0.00     0.000 A 
ATOM     28  C   UNL     1     105.724 111.642  78.754  1.00  0.00     0.000 A 
ATOM     29  C   UNL     1     105.040 112.021  77.598  1.00  0.00     0.000 A 
ENDBRANCH  23  24
ENDBRANCH   2  23
TORSDOF 3
ENDMDL
MODEL 2
REMARK VINA RESULT:     -10.4      2.583      4.027
REMARK SMILES O=C1c2ccccc2-c2ccc(C(=O)N3CCN(Cc4ccccc4)CC3)cc21
REMARK SMILES IDX 14 1 18 2 15 3 17 4 26 5 16 6 27 7 13 8 12 9 28 10 11 11
REMARK SMILES IDX 29 12 10 13 9 14 2 15 8 16 1 17 3 18 7 19 4 20 6 21 5 22
REMARK SMILES IDX 19 23 20 24 21 25 25 26 22 27 24 28 23 29
REMARK H PARENT
ROOT
ATOM      1  O   UNL     1     109.524 114.522  79.789  1.00  0.00    -0.269 OA
ATOM      2  N   UNL     1     108.756 112.575  75.265  1.00  0.00    -0.296 NA
ATOM      3  N   UNL     1     109.758 113.201  77.875  1.00  0.00    -0.336 N 
ATOM      4  C   UNL     1     110.196 112.783  75.478  1.00  0.00     0.106 C 
ATOM      5  C   UNL     1     107.975 113.419  76.181  1.00  0.00     0.106 C 
ATOM      6  C   UNL     1     110.592 112.461  76.921  1.00  0.00     0.135 C 
ATOM      7  C   UNL     1     108.320 113.098  77.635  1.00  0.00     0.135 C 
ATOM      8  C   UNL     1     110.224 113.902  78.989  1.00  0.00     0.253 C 
ENDROOT
BRANCH   8   9
ATOM      9  C   UNL     1     111.670 113.906  79.252  1.00  0.00     0.040 A 
ATOM     10  C   UNL     1     112.466 114.914  78.708  1.00  0.00     0.026 A 
ATOM     11  C   UNL     1     112.233 112.892  80.049  1.00  0.00     0.014 A 
ATOM     12  C   UNL     1     113.816 114.864  78.990  1.00  0.00     0.031 A 
ATOM     13  C   UNL     1     113.607 112.864  80.319  1.00  0.00     0.010 A 
ATOM     14  C   UNL     1     114.401 113.861  79.782  1.00  0.00    -0.006 A 
ATOM     15  C   UNL     1     114.893 115.781  78.561  1.00  0.00     0.194 C 
ATOM     16  C   UNL     1     115.825 114.103  79.878  1.00  0.00    -0.006 A 
ATOM     17  O   UNL     1     114.773 116.765  77.865  1.00  0.00    -0.289 OA
ATOM     18  C   UNL     1     116.146 115.260  79.147  1.00  0.00     0.030 A 
ATOM     19  C   UNL     1     116.826 113.409  80.536  1.00  0.00     0.009 A 
ATOM     20  C   UNL     1     117.430 115.757  79.042  1.00  0.00     0.013 A 
ATOM     21  C   UNL     1     118.137 113.893  80.445  1.00  0.00     0.001 A 
ATOM     22  C   UNL     1     118.435 115.055  79.707  1.00  0.00     0.001 A 
ENDBRANCH   8   9
BRANCH   2  23
ATOM     23  C   UNL     1     108.396 112.857  73.876  1.00  0.00     0.120 C 
BRANCH  23  24
ATOM     24  C   UNL     1     107.924 111.626  73.158  1.00  0.00    -0.034 A 
ATOM     25  C   UNL     1     107.345 110.579  73.874  1.00  0.00     0.005 A 
ATOM     26  C   UNL     1     108.062 111.531  71.773  1.00  0.00     0.005 A 
ATOM     27  C   UNL     1     106.906 109.436  73.207  1.00  0.00     0.000 A 
ATOM     28  C   UNL     1     107.622 110.387  71.105  1.00  0.00     0.000 A 
ATOM     29  C   UNL     1     107.044 109.340  71.823  1.00  0.00     0.000 A 
ENDBRANCH  23  24
ENDBRANCH   2  23
TORSDOF 3
ENDMDL
MODEL 3
REMARK VINA RESULT:     -10.0      1.624      2.617
REMARK SMILES O=C1c2ccccc2-c2ccc(C(=O)N3CCN(Cc4ccccc4)CC3)cc21
REMARK SMILES IDX 14 1 18 2 15 3 17 4 26 5 16 6 27 7 13 8 12 9 28 10 11 11
REMARK SMILES IDX 29 12 10 13 9 14 2 15 8 16 1 17 3 18 7 19 4 20 6 21 5 22
REMARK SMILES IDX 19 23 20 24 21 25 25 26 22 27 24 28 23 29
REMARK H PARENT
ROOT
ATOM      1  O   UNL     1     113.329 116.118  78.214  1.00  0.00    -0.269 OA
ATOM      2  N   UNL     1     110.282 112.174  78.140  1.00  0.00    -0.296 NA
ATOM      3  N   UNL     1     112.307 114.095  78.785  1.00  0.00    -0.336 N 
ATOM      4  C   UNL     1     111.653 111.736  78.439  1.00  0.00     0.106 C 
ATOM      5  C   UNL     1     110.295 113.492  77.488  1.00  0.00     0.106 C 
ATOM      6  C   UNL     1     112.367 112.740  79.346  1.00  0.00     0.135 C 
ATOM      7  C   UNL     1     110.970 114.529  78.383  1.00  0.00     0.135 C 
ATOM      8  C   UNL     1     113.381 114.982  78.685  1.00  0.00     0.253 C 
ENDROOT
BRANCH   8   9
ATOM      9  C   UNL     1     114.692 114.544  79.184  1.00  0.00     0.040 A 
ATOM     10  C   UNL     1     115.214 115.117  80.343  1.00  0.00     0.026 A 
ATOM     11  C   UNL     1     115.404 113.552  78.485  1.00  0.00     0.014 A 
ATOM     12  C   UNL     1     116.449 114.665  80.761  1.00  0.00     0.031 A 
ATOM     13  C   UNL     1     116.657 113.111  78.930  1.00  0.00     0.010 A 
ATOM     14  C   UNL     1     117.179 113.676  80.080  1.00  0.00    -0.006 A 
ATOM     15  C   UNL     1     117.244 115.077  81.937  1.00  0.00     0.194 C 
ATOM     16  C   UNL     1     118.423 113.437  80.780  1.00  0.00    -0.006 A 
ATOM     17  O   UNL     1     116.940 115.911  82.762  1.00  0.00    -0.289 OA
ATOM     18  C   UNL     1     118.485 114.274  81.908  1.00  0.00     0.030 A 
ATOM     19  C   UNL     1     119.469 112.571  80.513  1.00  0.00     0.009 A 
ATOM     20  C   UNL     1     119.550 114.285  82.785  1.00  0.00     0.013 A 
ATOM     21  C   UNL     1     120.562 112.563  81.388  1.00  0.00     0.001 A 
ATOM     22  C   UNL     1     120.602 113.410  82.512  1.00  0.00     0.001 A 
ENDBRANCH   8   9
BRANCH   2  23
ATOM     23  C   UNL     1     109.601 111.192  77.297  1.00  0.00     0.120 C 
BRANCH  23  24
ATOM     24  C   UNL     1     110.284 111.020  75.971  1.00  0.00    -0.034 A 
ATOM     25  C   UNL     1     109.768 111.645  74.834  1.00  0.00     0.005 A 
ATOM     26  C   UNL     1     111.434 110.238  75.874  1.00  0.00     0.005 A 
ATOM     27  C   UNL     1     110.402 111.485  73.602  1.00  0.00     0.000 A 
ATOM     28  C   UNL     1     112.069 110.079  74.642  1.00  0.00     0.000 A 
ATOM     29  C   UNL     1     111.552 110.703  73.506  1.00  0.00     0.000 A 
ENDBRANCH  23  24
ENDBRANCH   2  23
TORSDOF 3
ENDMDL
MODEL 4
REMARK VINA RESULT:     -10.0      2.799      4.290
REMARK SMILES O=C1c2ccccc2-c2ccc(C(=O)N3CCN(Cc4ccccc4)CC3)cc21
REMARK SMILES IDX 14 1 18 2 15 3 17 4 26 5 16 6 27 7 13 8 12 9 28 10 11 11
REMARK SMILES IDX 29 12 10 13 9 14 2 15 8 16 1 17 3 18 7 19 4 20 6 21 5 22
REMARK SMILES IDX 19 23 20 24 21 25 25 26 22 27 24 28 23 29
REMARK H PARENT
ROOT
ATOM      1  O   UNL     1     110.003 111.788  80.180  1.00  0.00    -0.269 OA
ATOM      2  N   UNL     1     108.999 111.886  75.299  1.00  0.00    -0.296 NA
ATOM      3  N   UNL     1     110.252 111.627  77.862  1.00  0.00    -0.336 N 
ATOM      4  C   UNL     1     110.315 112.492  75.546  1.00  0.00     0.106 C 
ATOM      5  C   UNL     1     108.192 111.892  76.528  1.00  0.00     0.106 C 
ATOM      6  C   UNL     1     111.068 111.743  76.648  1.00  0.00     0.135 C 
ATOM      7  C   UNL     1     108.900 111.120  77.640  1.00  0.00     0.135 C 
ATOM      8  C   UNL     1     110.688 111.886  79.163  1.00  0.00     0.253 C 
ENDROOT
BRANCH   8   9
ATOM      9  C   UNL     1     112.083 112.306  79.357  1.00  0.00     0.040 A 
ATOM     10  C   UNL     1     112.491 113.567  78.921  1.00  0.00     0.026 A 
ATOM     11  C   UNL     1     112.991 111.429  79.979  1.00  0.00     0.014 A 
ATOM     12  C   UNL     1     113.812 113.903  79.131  1.00  0.00     0.031 A 
ATOM     13  C   UNL     1     114.329 111.794  80.179  1.00  0.00     0.010 A 
ATOM     14  C   UNL     1     114.737 113.044  79.750  1.00  0.00    -0.006 A 
ATOM     15  C   UNL     1     114.523 115.151  78.785  1.00  0.00     0.194 C 
ATOM     16  C   UNL     1     116.026 113.700  79.813  1.00  0.00    -0.006 A 
ATOM     17  O   UNL     1     114.054 116.125  78.237  1.00  0.00    -0.289 OA
ATOM     18  C   UNL     1     115.921 114.977  79.234  1.00  0.00     0.030 A 
ATOM     19  C   UNL     1     117.241 113.278  80.321  1.00  0.00     0.009 A 
ATOM     20  C   UNL     1     116.982 115.855  79.140  1.00  0.00     0.013 A 
ATOM     21  C   UNL     1     118.334 114.150  80.238  1.00  0.00     0.001 A 
ATOM     22  C   UNL     1     118.205 115.425  79.654  1.00  0.00     0.001 A 
ENDBRANCH   8   9
BRANCH   2  23
ATOM     23  C   UNL     1     108.302 112.593  74.225  1.00  0.00     0.120 C 
BRANCH  23  24
ATOM     24  C   UNL     1     108.007 111.693  73.060  1.00  0.00    -0.034 A 
ATOM     25  C   UNL     1     107.400 110.455  73.270  1.00  0.00     0.005 A 
ATOM     26  C   UNL     1     108.339 112.096  71.766  1.00  0.00     0.005 A 
ATOM     27  C   UNL     1     107.126 109.619  72.188  1.00  0.00     0.000 A 
ATOM     28  C   UNL     1     108.064 111.260  70.683  1.00  0.00     0.000 A 
ATOM     29  C   UNL     1     107.458 110.022  70.894  1.00  0.00     0.000 A 
ENDBRANCH  23  24
ENDBRANCH   2  23
TORSDOF 3
ENDMDL
MODEL 5
REMARK VINA RESULT:      -9.9      3.006      4.521
REMARK SMILES O=C1c2ccccc2-c2ccc(C(=O)N3CCN(Cc4ccccc4)CC3)cc21
REMARK SMILES IDX 14 1 18 2 15 3 17 4 26 5 16 6 27 7 13 8 12 9 28 10 11 11
REMARK SMILES IDX 29 12 10 13 9 14 2 15 8 16 1 17 3 18 7 19 4 20 6 21 5 22
REMARK SMILES IDX 19 23 20 24 21 25 25 26 22 27 24 28 23 29
REMARK H PARENT
ROOT
ATOM      1  O   UNL     1     110.027 111.628  80.179  1.00  0.00    -0.269 OA
ATOM      2  N   UNL     1     108.907 112.138  75.349  1.00  0.00    -0.296 NA
ATOM      3  N   UNL     1     110.226 111.682  77.850  1.00  0.00    -0.336 N 
ATOM      4  C   UNL     1     110.213 112.753  75.622  1.00  0.00     0.106 C 
ATOM      5  C   UNL     1     108.128 112.012  76.590  1.00  0.00     0.106 C 
ATOM      6  C   UNL     1     111.010 111.928  76.635  1.00  0.00     0.135 C 
ATOM      7  C   UNL     1     108.881 111.162  77.612  1.00  0.00     0.135 C 
ATOM      8  C   UNL     1     110.686 111.835  79.160  1.00  0.00     0.253 C 
ENDROOT
BRANCH   8   9
ATOM      9  C   UNL     1     112.074 112.272  79.361  1.00  0.00     0.040 A 
ATOM     10  C   UNL     1     112.470 113.536  78.923  1.00  0.00     0.026 A 
ATOM     11  C   UNL     1     112.989 111.408  79.993  1.00  0.00     0.014 A 
ATOM     12  C   UNL     1     113.786 113.889  79.140  1.00  0.00     0.031 A 
ATOM     13  C   UNL     1     114.320 111.791  80.200  1.00  0.00     0.010 A 
ATOM     14  C   UNL     1     114.717 113.044  79.768  1.00  0.00    -0.006 A 
ATOM     15  C   UNL     1     114.484 115.144  78.793  1.00  0.00     0.194 C 
ATOM     16  C   UNL     1     115.997 113.715  79.837  1.00  0.00    -0.006 A 
ATOM     17  O   UNL     1     114.007 116.109  78.239  1.00  0.00    -0.289 OA
ATOM     18  C   UNL     1     115.881 114.988  79.252  1.00  0.00     0.030 A 
ATOM     19  C   UNL     1     117.214 113.309  80.355  1.00  0.00     0.009 A 
ATOM     20  C   UNL     1     116.932 115.879  79.162  1.00  0.00     0.013 A 
ATOM     21  C   UNL     1     118.297 114.194  80.276  1.00  0.00     0.001 A 
ATOM     22  C   UNL     1     118.157 115.465  79.686  1.00  0.00     0.001 A 
ENDBRANCH   8   9
BRANCH   2  23
ATOM     23  C   UNL     1     108.167 112.919  74.358  1.00  0.00     0.120 C 
BRANCH  23  24
ATOM     24  C   UNL     1     108.727 112.746  72.975  1.00  0.00    -0.034 A 
ATOM     25  C   UNL     1     108.904 111.466  72.449  1.00  0.00     0.005 A 
ATOM     26  C   UNL     1     109.068 113.865  72.216  1.00  0.00     0.005 A 
ATOM     27  C   UNL     1     109.423 111.305  71.165  1.00  0.00     0.000 A 
ATOM     28  C   UNL     1     109.588 113.705  70.931  1.00  0.00     0.000 A 
ATOM     29  C   UNL     1     109.765 112.424  70.405  1.00  0.00     0.000 A 
ENDBRANCH  23  24
ENDBRANCH   2  23
TORSDOF 3
ENDMDL
MODEL 6
REMARK VINA RESULT:      -9.8      2.827      4.210
REMARK SMILES O=C1c2ccccc2-c2ccc(C(=O)N3CCN(Cc4ccccc4)CC3)cc21
REMARK SMILES IDX 14 1 18 2 15 3 17 4 26 5 16 6 27 7 13 8 12 9 28 10 11 11
REMARK SMILES IDX 29 12 10 13 9 14 2 15 8 16 1 17 3 18 7 19 4 20 6 21 5 22
REMARK SMILES IDX 19 23 20 24 21 25 25 26 22 27 24 28 23 29
REMARK H PARENT
ROOT
ATOM      1  O   UNL     1     109.263 114.361  79.664  1.00  0.00    -0.269 OA
ATOM      2  N   UNL     1     108.434 112.566  75.088  1.00  0.00    -0.296 NA
ATOM      3  N   UNL     1     109.556 113.231  77.639  1.00  0.00    -0.336 N 
ATOM      4  C   UNL     1     109.817 113.054  75.186  1.00  0.00     0.106 C 
ATOM      5  C   UNL     1     107.599 113.176  76.134  1.00  0.00     0.106 C 
ATOM      6  C   UNL     1     110.417 112.737  76.558  1.00  0.00     0.135 C 
ATOM      7  C   UNL     1     108.150 112.848  77.521  1.00  0.00     0.135 C 
ATOM      8  C   UNL     1     109.986 113.947  78.758  1.00  0.00     0.253 C 
ENDROOT
BRANCH   8   9
ATOM      9  C   UNL     1     111.421 114.234  78.889  1.00  0.00     0.040 A 
ATOM     10  C   UNL     1     112.277 113.255  79.395  1.00  0.00     0.026 A 
ATOM     11  C   UNL     1     111.914 115.494  78.502  1.00  0.00     0.014 A 
ATOM     12  C   UNL     1     113.613 113.585  79.495  1.00  0.00     0.031 A 
ATOM     13  C   UNL     1     113.276 115.803  78.615  1.00  0.00     0.010 A 
ATOM     14  C   UNL     1     114.129 114.836  79.116  1.00  0.00    -0.006 A 
ATOM     15  C   UNL     1     114.741 112.766  79.985  1.00  0.00     0.194 C 
ATOM     16  C   UNL     1     115.557 114.850  79.347  1.00  0.00    -0.006 A 
ATOM     17  O   UNL     1     114.686 111.629  80.399  1.00  0.00    -0.289 OA
ATOM     18  C   UNL     1     115.951 113.608  79.873  1.00  0.00     0.030 A 
ATOM     19  C   UNL     1     116.505 115.836  79.138  1.00  0.00     0.009 A 
ATOM     20  C   UNL     1     117.257 113.305  80.202  1.00  0.00     0.013 A 
ATOM     21  C   UNL     1     117.838 115.554  79.464  1.00  0.00     0.001 A 
ATOM     22  C   UNL     1     118.209 114.302  79.990  1.00  0.00     0.001 A 
ENDBRANCH   8   9
BRANCH   2  23
ATOM     23  C   UNL     1     107.882 112.849  73.763  1.00  0.00     0.120 C 
BRANCH  23  24
ATOM     24  C   UNL     1     107.612 111.592  72.988  1.00  0.00    -0.034 A 
ATOM     25  C   UNL     1     107.798 111.571  71.606  1.00  0.00     0.005 A 
ATOM     26  C   UNL     1     107.176 110.444  73.650  1.00  0.00     0.005 A 
ATOM     27  C   UNL     1     107.546 110.404  70.885  1.00  0.00     0.000 A 
ATOM     28  C   UNL     1     106.925 109.276  72.930  1.00  0.00     0.000 A 
ATOM     29  C   UNL     1     107.110 109.256  71.547  1.00  0.00     0.000 A 
ENDBRANCH  23  24
ENDBRANCH   2  23
TORSDOF 3
ENDMDL
MODEL 7
REMARK VINA RESULT:      -9.8      2.436     10.610
REMARK SMILES O=C1c2ccccc2-c2ccc(C(=O)N3CCN(Cc4ccccc4)CC3)cc21
REMARK SMILES IDX 14 1 18 2 15 3 17 4 26 5 16 6 27 7 13 8 12 9 28 10 11 11
REMARK SMILES IDX 29 12 10 13 9 14 2 15 8 16 1 17 3 18 7 19 4 20 6 21 5 22
REMARK SMILES IDX 19 23 20 24 21 25 25 26 22 27 24 28 23 29
REMARK H PARENT
ROOT
ATOM      1  O   UNL     1     111.460 111.736  75.993  1.00  0.00    -0.269 OA
ATOM      2  N   UNL     1     114.085 113.765  79.712  1.00  0.00    -0.296 NA
ATOM      3  N   UNL     1     112.173 112.323  78.140  1.00  0.00    -0.336 N 
ATOM      4  C   UNL     1     112.648 113.885  79.997  1.00  0.00     0.106 C 
ATOM      5  C   UNL     1     114.308 113.557  78.274  1.00  0.00     0.106 C 
ATOM      6  C   UNL     1     111.890 112.634  79.546  1.00  0.00     0.135 C 
ATOM      7  C   UNL     1     113.594 112.293  77.797  1.00  0.00     0.135 C 
ATOM      8  C   UNL     1     111.221 111.996  77.172  1.00  0.00     0.253 C 
ENDROOT
BRANCH   8   9
ATOM      9  C   UNL     1     109.810 111.946  77.576  1.00  0.00     0.040 A 
ATOM     10  C   UNL     1     108.930 111.097  76.904  1.00  0.00     0.026 A 
ATOM     11  C   UNL     1     109.362 112.756  78.637  1.00  0.00     0.014 A 
ATOM     12  C   UNL     1     107.617 111.094  77.329  1.00  0.00     0.031 A 
ATOM     13  C   UNL     1     108.023 112.735  79.048  1.00  0.00     0.010 A 
ATOM     14  C   UNL     1     107.147 111.894  78.385  1.00  0.00    -0.006 A 
ATOM     15  C   UNL     1     106.473 110.311  76.819  1.00  0.00     0.194 C 
ATOM     16  C   UNL     1     105.733 111.651  78.572  1.00  0.00    -0.006 A 
ATOM     17  O   UNL     1     106.490 109.511  75.909  1.00  0.00    -0.289 OA
ATOM     18  C   UNL     1     105.302 110.696  77.635  1.00  0.00     0.030 A 
ATOM     19  C   UNL     1     104.826 112.185  79.470  1.00  0.00     0.009 A 
ATOM     20  C   UNL     1     103.999 110.248  77.555  1.00  0.00     0.013 A 
ATOM     21  C   UNL     1     103.497 111.748  79.410  1.00  0.00     0.001 A 
ATOM     22  C   UNL     1     103.089 110.789  78.462  1.00  0.00     0.001 A 
ENDBRANCH   8   9
BRANCH   2  23
ATOM     23  C   UNL     1     114.801 114.954  80.175  1.00  0.00     0.120 C 
BRANCH  23  24
ATOM     24  C   UNL     1     116.170 114.618  80.692  1.00  0.00    -0.034 A 
ATOM     25  C   UNL     1     116.831 113.480  80.231  1.00  0.00     0.005 A 
ATOM     26  C   UNL     1     116.782 115.446  81.633  1.00  0.00     0.005 A 
ATOM     27  C   UNL     1     118.103 113.168  80.711  1.00  0.00     0.000 A 
ATOM     28  C   UNL     1     118.055 115.135  82.113  1.00  0.00     0.000 A 
ATOM     29  C   UNL     1     118.715 113.996  81.652  1.00  0.00     0.000 A 
ENDBRANCH  23  24
ENDBRANCH   2  23
TORSDOF 3
ENDMDL
MODEL 8
REMARK VINA RESULT:      -9.7      1.779      2.640
REMARK SMILES O=C1c2ccccc2-c2ccc(C(=O)N3CCN(Cc4ccccc4)CC3)cc21
REMARK SMILES IDX 14 1 18 2 15 3 17 4 26 5 16 6 27 7 13 8 12 9 28 10 11 11
REMARK SMILES IDX 29 12 10 13 9 14 2 15 8 16 1 17 3 18 7 19 4 20 6 21 5 22
REMARK SMILES IDX 19 23 20 24 21 25 25 26 22 27 24 28 23 29
REMARK H PARENT
ROOT
ATOM      1  O   UNL     1     110.955 116.247  77.358  1.00  0.00    -0.269 OA
ATOM      2  N   UNL     1     107.883 112.437  78.301  1.00  0.00    -0.296 NA
ATOM      3  N   UNL     1     109.946 114.422  78.413  1.00  0.00    -0.336 N 
ATOM      4  C   UNL     1     109.263 112.056  78.636  1.00  0.00     0.106 C 
ATOM      5  C   UNL     1     107.876 113.573  77.368  1.00  0.00     0.106 C 
ATOM      6  C   UNL     1     110.022 113.227  79.262  1.00  0.00     0.135 C 
ATOM      7  C   UNL     1     108.596 114.775  77.978  1.00  0.00     0.135 C 
ATOM      8  C   UNL     1     111.020 115.246  78.071  1.00  0.00     0.253 C 
ENDROOT
BRANCH   8   9
ATOM      9  C   UNL     1     112.348 114.912  78.602  1.00  0.00     0.040 A 
ATOM     10  C   UNL     1     113.441 115.721  78.288  1.00  0.00     0.026 A 
ATOM     11  C   UNL     1     112.502 113.778  79.423  1.00  0.00     0.014 A 
ATOM     12  C   UNL     1     114.661 115.354  78.816  1.00  0.00     0.031 A 
ATOM     13  C   UNL     1     113.753 113.428  79.946  1.00  0.00     0.010 A 
ATOM     14  C   UNL     1     114.840 114.227  79.637  1.00  0.00    -0.006 A 
ATOM     15  C   UNL     1     115.978 116.007  78.662  1.00  0.00     0.194 C 
ATOM     16  C   UNL     1     116.233 114.132  80.017  1.00  0.00    -0.006 A 
ATOM     17  O   UNL     1     116.221 117.007  78.022  1.00  0.00    -0.289 OA
ATOM     18  C   UNL     1     116.942 115.199  79.438  1.00  0.00     0.030 A 
ATOM     19  C   UNL     1     116.903 113.213  80.804  1.00  0.00     0.009 A 
ATOM     20  C   UNL     1     118.298 115.389  79.612  1.00  0.00     0.013 A 
ATOM     21  C   UNL     1     118.280 113.383  80.997  1.00  0.00     0.001 A 
ATOM     22  C   UNL     1     118.969 114.460  80.407  1.00  0.00     0.001 A 
ENDBRANCH   8   9
BRANCH   2  23
ATOM     23  C   UNL     1     107.160 111.301  77.731  1.00  0.00     0.120 C 
BRANCH  23  24
ATOM     24  C   UNL     1     105.733 111.253  78.196  1.00  0.00    -0.034 A 
ATOM     25  C   UNL     1     104.799 110.481  77.504  1.00  0.00     0.005 A 
ATOM     26  C   UNL     1     105.341 111.979  79.320  1.00  0.00     0.005 A 
ATOM     27  C   UNL     1     103.474 110.437  77.935  1.00  0.00     0.000 A 
ATOM     28  C   UNL     1     104.015 111.935  79.752  1.00  0.00     0.000 A 
ATOM     29  C   UNL     1     103.082 111.163  79.060  1.00  0.00     0.000 A 
ENDBRANCH  23  24
ENDBRANCH   2  23
TORSDOF 3
ENDMDL
MODEL 9
REMARK VINA RESULT:      -9.7      2.979     10.312
REMARK SMILES O=C1c2ccccc2-c2ccc(C(=O)N3CCN(Cc4ccccc4)CC3)cc21
REMARK SMILES IDX 14 1 18 2 15 3 17 4 26 5 16 6 27 7 13 8 12 9 28 10 11 11
REMARK SMILES IDX 29 12 10 13 9 14 2 15 8 16 1 17 3 18 7 19 4 20 6 21 5 22
REMARK SMILES IDX 19 23 20 24 21 25 25 26 22 27 24 28 23 29
REMARK H PARENT
ROOT
ATOM      1  O   UNL     1     108.328 113.715  79.286  1.00  0.00    -0.269 OA
ATOM      2  N   UNL     1     113.308 113.640  79.465  1.00  0.00    -0.296 NA
ATOM      3  N   UNL     1     110.570 113.710  78.626  1.00  0.00    -0.336 N 
ATOM      4  C   UNL     1     112.838 112.751  78.393  1.00  0.00     0.106 C 
ATOM      5  C   UNL     1     112.236 113.881  80.441  1.00  0.00     0.106 C 
ATOM      6  C   UNL     1     111.627 113.349  77.674  1.00  0.00     0.135 C 
ATOM      7  C   UNL     1     111.022 114.512  79.761  1.00  0.00     0.135 C 
ATOM      8  C   UNL     1     109.213 113.413  78.487  1.00  0.00     0.253 C 
ENDROOT
BRANCH   8   9
ATOM      9  C   UNL     1     108.782 112.683  77.286  1.00  0.00     0.040 A 
ATOM     10  C   UNL     1     108.877 113.296  76.036  1.00  0.00     0.026 A 
ATOM     11  C   UNL     1     108.278 111.375  77.412  1.00  0.00     0.014 A 
ATOM     12  C   UNL     1     108.457 112.560  74.947  1.00  0.00     0.031 A 
ATOM     13  C   UNL     1     107.857 110.650  76.290  1.00  0.00     0.010 A 
ATOM     14  C   UNL     1     107.950 111.253  75.048  1.00  0.00    -0.006 A 
ATOM     15  C   UNL     1     108.439 112.937  73.518  1.00  0.00     0.194 C 
ATOM     16  C   UNL     1     107.604 110.774  73.727  1.00  0.00    -0.006 A 
ATOM     17  O   UNL     1     108.800 113.990  73.042  1.00  0.00    -0.289 OA
ATOM     18  C   UNL     1     107.891 111.777  72.784  1.00  0.00     0.030 A 
ATOM     19  C   UNL     1     107.075 109.568  73.303  1.00  0.00     0.009 A 
ATOM     20  C   UNL     1     107.672 111.626  71.430  1.00  0.00     0.013 A 
ATOM     21  C   UNL     1     106.843 109.390  71.934  1.00  0.00     0.001 A 
ATOM     22  C   UNL     1     107.139 110.409  71.007  1.00  0.00     0.001 A 
ENDBRANCH   8   9
BRANCH   2  23
ATOM     23  C   UNL     1     114.483 113.071  80.125  1.00  0.00     0.120 C 
BRANCH  23  24
ATOM     24  C   UNL     1     115.715 113.896  79.887  1.00  0.00    -0.034 A 
ATOM     25  C   UNL     1     115.614 115.137  79.259  1.00  0.00     0.005 A 
ATOM     26  C   UNL     1     116.962 113.421  80.294  1.00  0.00     0.005 A 
ATOM     27  C   UNL     1     116.758 115.903  79.037  1.00  0.00     0.000 A 
ATOM     28  C   UNL     1     118.107 114.187  80.073  1.00  0.00     0.000 A 
ATOM     29  C   UNL     1     118.005 115.428  79.444  1.00  0.00     0.000 A 
ENDBRANCH  23  24
ENDBRANCH   2  23
TORSDOF 3
ENDMDL
MODEL 10
REMARK VINA RESULT:      -9.6      1.337      1.931
REMARK SMILES O=C1c2ccccc2-c2ccc(C(=O)N3CCN(Cc4ccccc4)CC3)cc21
REMARK SMILES IDX 14 1 18 2 15 3 17 4 26 5 16 6 27 7 13 8 12 9 28 10 11 11
REMARK SMILES IDX 29 12 10 13 9 14 2 15 8 16 1 17 3 18 7 19 4 20 6 21 5 22
REMARK SMILES IDX 19 23 20 24 21 25 25 26 22 27 24 28 23 29
REMARK H PARENT
ROOT
ATOM      1  O   UNL     1     113.429 116.200  78.013  1.00  0.00    -0.269 OA
ATOM      2  N   UNL     1     110.428 112.226  78.232  1.00  0.00    -0.296 NA
ATOM      3  N   UNL     1     112.347 114.278  78.789  1.00  0.00    -0.336 N 
ATOM      4  C   UNL     1     111.750 111.879  78.773  1.00  0.00     0.106 C 
ATOM      5  C   UNL     1     110.521 113.414  77.370  1.00  0.00     0.106 C 
ATOM      6  C   UNL     1     112.338 113.040  79.577  1.00  0.00     0.135 C 
ATOM      7  C   UNL     1     111.073 114.604  78.152  1.00  0.00     0.135 C 
ATOM      8  C   UNL     1     113.423 115.162  78.675  1.00  0.00     0.253 C 
ENDROOT
BRANCH   8   9
ATOM      9  C   UNL     1     114.659 114.848  79.404  1.00  0.00     0.040 A 
ATOM     10  C   UNL     1     115.604 114.000  78.826  1.00  0.00     0.026 A 
ATOM     11  C   UNL     1     114.875 115.408  80.677  1.00  0.00     0.014 A 
ATOM     12  C   UNL     1     116.744 113.743  79.560  1.00  0.00     0.031 A 
ATOM     13  C   UNL     1     116.041 115.130  81.402  1.00  0.00     0.010 A 
ATOM     14  C   UNL     1     116.981 114.289  80.833  1.00  0.00    -0.006 A 
ATOM     15  C   UNL     1     117.906 112.897  79.213  1.00  0.00     0.194 C 
ATOM     16  C   UNL     1     118.261 113.821  81.320  1.00  0.00    -0.006 A 
ATOM     17  O   UNL     1     118.061 112.262  78.194  1.00  0.00    -0.289 OA
ATOM     18  C   UNL     1     118.839 112.977  80.356  1.00  0.00     0.030 A 
ATOM     19  C   UNL     1     118.934 114.070  82.503  1.00  0.00     0.009 A 
ATOM     20  C   UNL     1     120.067 112.367  80.523  1.00  0.00     0.013 A 
ATOM     21  C   UNL     1     120.181 113.464  82.697  1.00  0.00     0.001 A 
ATOM     22  C   UNL     1     120.741 112.622  81.717  1.00  0.00     0.001 A 
ENDBRANCH   8   9
BRANCH   2  23
ATOM     23  C   UNL     1     109.864 111.098  77.491  1.00  0.00     0.120 C 
BRANCH  23  24
ATOM     24  C   UNL     1     108.364 111.083  77.548  1.00  0.00    -0.034 A 
ATOM     25  C   UNL     1     107.632 110.513  76.506  1.00  0.00     0.005 A 
ATOM     26  C   UNL     1     107.702 111.637  78.643  1.00  0.00     0.005 A 
ATOM     27  C   UNL     1     106.238 110.499  76.558  1.00  0.00     0.000 A 
ATOM     28  C   UNL     1     106.308 111.622  78.696  1.00  0.00     0.000 A 
ATOM     29  C   UNL     1     105.576 111.053  77.654  1.00  0.00     0.000 A 
ENDBRANCH  23  24
ENDBRANCH   2  23
TORSDOF 3
ENDMDL
MODEL 11
REMARK VINA RESULT:      -9.5      2.125      3.477
REMARK SMILES O=C1c2ccccc2-c2ccc(C(=O)N3CCN(Cc4ccccc4)CC3)cc21
REMARK SMILES IDX 14 1 18 2 15 3 17 4 26 5 16 6 27 7 13 8 12 9 28 10 11 11
REMARK SMILES IDX 29 12 10 13 9 14 2 15 8 16 1 17 3 18 7 19 4 20 6 21 5 22
REMARK SMILES IDX 19 23 20 24 21 25 25 26 22 27 24 28 23 29
REMARK H PARENT
ROOT
ATOM      1  O   UNL     1     112.128 111.157  76.111  1.00  0.00    -0.269 OA
ATOM      2  N   UNL     1     107.610 111.779  78.122  1.00  0.00    -0.296 NA
ATOM      3  N   UNL     1     110.320 112.103  77.250  1.00  0.00    -0.336 N 
ATOM      4  C   UNL     1     108.639 112.256  79.057  1.00  0.00     0.106 C 
ATOM      5  C   UNL     1     108.195 110.849  77.145  1.00  0.00     0.106 C 
ATOM      6  C   UNL     1     109.778 112.957  78.314  1.00  0.00     0.135 C 
ATOM      7  C   UNL     1     109.314 111.530  76.358  1.00  0.00     0.135 C 
ATOM      8  C   UNL     1     111.675 111.874  77.003  1.00  0.00     0.253 C 
ENDROOT
BRANCH   8   9
ATOM      9  C   UNL     1     112.660 112.541  77.864  1.00  0.00     0.040 A 
ATOM     10  C   UNL     1     114.022 112.335  77.643  1.00  0.00     0.026 A 
ATOM     11  C   UNL     1     112.217 113.381  78.904  1.00  0.00     0.014 A 
ATOM     12  C   UNL     1     114.898 112.988  78.485  1.00  0.00     0.031 A 
ATOM     13  C   UNL     1     113.128 114.032  79.746  1.00  0.00     0.010 A 
ATOM     14  C   UNL     1     114.479 113.831  79.530  1.00  0.00    -0.006 A 
ATOM     15  C   UNL     1     116.375 112.965  78.494  1.00  0.00     0.194 C 
ATOM     16  C   UNL     1     115.643 114.353  80.214  1.00  0.00    -0.006 A 
ATOM     17  O   UNL     1     117.095 112.348  77.741  1.00  0.00    -0.289 OA
ATOM     18  C   UNL     1     116.803 113.842  79.605  1.00  0.00     0.030 A 
ATOM     19  C   UNL     1     115.758 115.211  81.293  1.00  0.00     0.009 A 
ATOM     20  C   UNL     1     118.079 114.153  80.028  1.00  0.00     0.013 A 
ATOM     21  C   UNL     1     117.043 115.542  81.742  1.00  0.00     0.001 A 
ATOM     22  C   UNL     1     118.191 115.019  81.116  1.00  0.00     0.001 A 
ENDBRANCH   8   9
BRANCH   2  23
ATOM     23  C   UNL     1     106.514 111.138  78.847  1.00  0.00     0.120 C 
BRANCH  23  24
ATOM     24  C   UNL     1     105.200 111.821  78.598  1.00  0.00    -0.034 A 
ATOM     25  C   UNL     1     104.855 112.223  77.307  1.00  0.00     0.005 A 
ATOM     26  C   UNL     1     104.324 112.054  79.658  1.00  0.00     0.005 A 
ATOM     27  C   UNL     1     103.635 112.858  77.076  1.00  0.00     0.000 A 
ATOM     28  C   UNL     1     103.103 112.689  79.427  1.00  0.00     0.000 A 
ATOM     29  C   UNL     1     102.759 113.091  78.136  1.00  0.00     0.000 A 
ENDBRANCH  23  24
ENDBRANCH   2  23
TORSDOF 3
ENDMDL
MODEL 12
REMARK VINA RESULT:      -9.5      2.430      4.198
REMARK SMILES O=C1c2ccccc2-c2ccc(C(=O)N3CCN(Cc4ccccc4)CC3)cc21
REMARK SMILES IDX 14 1 18 2 15 3 17 4 26 5 16 6 27 7 13 8 12 9 28 10 11 11
REMARK SMILES IDX 29 12 10 13 9 14 2 15 8 16 1 17 3 18 7 19 4 20 6 21 5 22
REMARK SMILES IDX 19 23 20 24 21 25 25 26 22 27 24 28 23 29
REMARK H PARENT
ROOT
ATOM      1  O   UNL     1     109.153 114.567  79.748  1.00  0.00    -0.269 OA
ATOM      2  N   UNL     1     108.156 111.082  76.326  1.00  0.00    -0.296 NA
ATOM      3  N   UNL     1     109.289 112.620  78.461  1.00  0.00    -0.336 N 
ATOM      4  C   UNL     1     109.604 111.326  76.378  1.00  0.00     0.106 C 
ATOM      5  C   UNL     1     107.422 112.223  76.894  1.00  0.00     0.106 C 
ATOM      6  C   UNL     1     110.073 111.561  77.816  1.00  0.00     0.135 C 
ATOM      7  C   UNL     1     107.840 112.464  78.344  1.00  0.00     0.135 C 
ATOM      8  C   UNL     1     109.811 113.679  79.207  1.00  0.00     0.253 C 
ENDROOT
BRANCH   8   9
ATOM      9  C   UNL     1     111.268 113.752  79.381  1.00  0.00     0.040 A 
ATOM     10  C   UNL     1     111.982 114.795  78.791  1.00  0.00     0.026 A 
ATOM     11  C   UNL     1     111.927 112.768  80.142  1.00  0.00     0.014 A 
ATOM     12  C   UNL     1     113.347 114.810  78.989  1.00  0.00     0.031 A 
ATOM     13  C   UNL     1     113.315 112.805  80.328  1.00  0.00     0.010 A 
ATOM     14  C   UNL     1     114.026 113.838  79.744  1.00  0.00    -0.006 A 
ATOM     15  C   UNL     1     114.351 115.775  78.497  1.00  0.00     0.194 C 
ATOM     16  C   UNL     1     115.440 114.147  79.754  1.00  0.00    -0.006 A 
ATOM     17  O   UNL     1     114.142 116.751  77.809  1.00  0.00    -0.289 OA
ATOM     18  C   UNL     1     115.661 115.316  79.004  1.00  0.00     0.030 A 
ATOM     19  C   UNL     1     116.511 113.504  80.348  1.00  0.00     0.009 A 
ATOM     20  C   UNL     1     116.911 115.873  78.822  1.00  0.00     0.013 A 
ATOM     21  C   UNL     1     117.790 114.049  80.179  1.00  0.00     0.001 A 
ATOM     22  C   UNL     1     117.987 115.221  79.424  1.00  0.00     0.001 A 
ENDBRANCH   8   9
BRANCH   2  23
ATOM     23  C   UNL     1     107.726 110.830  74.951  1.00  0.00     0.120 C 
BRANCH  23  24
ATOM     24  C   UNL     1     108.527 111.623  73.958  1.00  0.00    -0.034 A 
ATOM     25  C   UNL     1     109.472 110.984  73.155  1.00  0.00     0.005 A 
ATOM     26  C   UNL     1     108.325 112.998  73.838  1.00  0.00     0.005 A 
ATOM     27  C   UNL     1     110.216 111.720  72.233  1.00  0.00     0.000 A 
ATOM     28  C   UNL     1     109.068 113.734  72.915  1.00  0.00     0.000 A 
ATOM     29  C   UNL     1     110.014 113.095  72.113  1.00  0.00     0.000 A 
ENDBRANCH  23  24
ENDBRANCH   2  23
TORSDOF 3
ENDMDL
MODEL 13
REMARK VINA RESULT:      -9.4      2.882      4.658
REMARK SMILES O=C1c2ccccc2-c2ccc(C(=O)N3CCN(Cc4ccccc4)CC3)cc21
REMARK SMILES IDX 14 1 18 2 15 3 17 4 26 5 16 6 27 7 13 8 12 9 28 10 11 11
REMARK SMILES IDX 29 12 10 13 9 14 2 15 8 16 1 17 3 18 7 19 4 20 6 21 5 22
REMARK SMILES IDX 19 23 20 24 21 25 25 26 22 27 24 28 23 29
REMARK H PARENT
ROOT
ATOM      1  O   UNL     1     108.772 114.478  79.781  1.00  0.00    -0.269 OA
ATOM      2  N   UNL     1     107.764 111.964  75.597  1.00  0.00    -0.296 NA
ATOM      3  N   UNL     1     108.990 113.038  77.953  1.00  0.00    -0.336 N 
ATOM      4  C   UNL     1     109.143 112.470  75.551  1.00  0.00     0.106 C 
ATOM      5  C   UNL     1     106.969 112.728  76.570  1.00  0.00     0.106 C 
ATOM      6  C   UNL     1     109.809 112.382  76.927  1.00  0.00     0.135 C 
ATOM      7  C   UNL     1     107.586 112.632  77.964  1.00  0.00     0.135 C 
ATOM      8  C   UNL     1     109.460 113.928  78.921  1.00  0.00     0.253 C 
ENDROOT
BRANCH   8   9
ATOM      9  C   UNL     1     110.895 114.242  78.938  1.00  0.00     0.040 A 
ATOM     10  C   UNL     1     111.802 113.301  79.425  1.00  0.00     0.026 A 
ATOM     11  C   UNL     1     111.337 115.491  78.460  1.00  0.00     0.014 A 
ATOM     12  C   UNL     1     113.135 113.655  79.415  1.00  0.00     0.031 A 
ATOM     13  C   UNL     1     112.697 115.826  78.462  1.00  0.00     0.010 A 
ATOM     14  C   UNL     1     113.600 114.895  78.945  1.00  0.00    -0.006 A 
ATOM     15  C   UNL     1     114.310 112.878  79.861  1.00  0.00     0.194 C 
ATOM     16  C   UNL     1     115.041 114.942  79.073  1.00  0.00    -0.006 A 
ATOM     17  O   UNL     1     114.305 111.760  80.329  1.00  0.00    -0.289 OA
ATOM     18  C   UNL     1     115.493 113.732  79.626  1.00  0.00     0.030 A 
ATOM     19  C   UNL     1     115.954 115.932  78.754  1.00  0.00     0.009 A 
ATOM     20  C   UNL     1     116.825 113.464  79.875  1.00  0.00     0.013 A 
ATOM     21  C   UNL     1     117.311 115.685  78.997  1.00  0.00     0.001 A 
ATOM     22  C   UNL     1     117.741 114.464  79.551  1.00  0.00     0.001 A 
ENDBRANCH   8   9
BRANCH   2  23
ATOM     23  C   UNL     1     107.150 112.025  74.271  1.00  0.00     0.120 C 
BRANCH  23  24
ATOM     24  C   UNL     1     108.177 112.139  73.182  1.00  0.00    -0.034 A 
ATOM     25  C   UNL     1     108.418 113.372  72.576  1.00  0.00     0.005 A 
ATOM     26  C   UNL     1     108.890 111.011  72.775  1.00  0.00     0.005 A 
ATOM     27  C   UNL     1     109.371 113.478  71.564  1.00  0.00     0.000 A 
ATOM     28  C   UNL     1     109.844 111.117  71.763  1.00  0.00     0.000 A 
ATOM     29  C   UNL     1     110.085 112.351  71.157  1.00  0.00     0.000 A 
ENDBRANCH  23  24
ENDBRANCH   2  23
TORSDOF 3
ENDMDL
MODEL 14
REMARK VINA RESULT:      -9.1      3.475     10.141
REMARK SMILES O=C1c2ccccc2-c2ccc(C(=O)N3CCN(Cc4ccccc4)CC3)cc21
REMARK SMILES IDX 14 1 18 2 15 3 17 4 26 5 16 6 27 7 13 8 12 9 28 10 11 11
REMARK SMILES IDX 29 12 10 13 9 14 2 15 8 16 1 17 3 18 7 19 4 20 6 21 5 22
REMARK SMILES IDX 19 23 20 24 21 25 25 26 22 27 24 28 23 29
REMARK H PARENT
ROOT
ATOM      1  O   UNL     1     109.847 111.155  78.998  1.00  0.00    -0.269 OA
ATOM      2  N   UNL     1     114.493 112.885  79.516  1.00  0.00    -0.296 NA
ATOM      3  N   UNL     1     111.759 112.478  78.762  1.00  0.00    -0.336 N 
ATOM      4  C   UNL     1     114.096 112.947  78.102  1.00  0.00     0.106 C 
ATOM      5  C   UNL     1     113.654 111.921  80.243  1.00  0.00     0.106 C 
ATOM      6  C   UNL     1     112.626 113.349  77.959  1.00  0.00     0.135 C 
ATOM      7  C   UNL     1     112.180 112.314  80.151  1.00  0.00     0.135 C 
ATOM      8  C   UNL     1     110.573 111.885  78.324  1.00  0.00     0.253 C 
ENDROOT
BRANCH   8   9
ATOM      9  C   UNL     1     110.133 112.147  76.947  1.00  0.00     0.040 A 
ATOM     10  C   UNL     1     110.695 111.426  75.894  1.00  0.00     0.026 A 
ATOM     11  C   UNL     1     109.148 113.125  76.708  1.00  0.00     0.014 A 
ATOM     12  C   UNL     1     110.240 111.718  74.624  1.00  0.00     0.031 A 
ATOM     13  C   UNL     1     108.705 113.403  75.409  1.00  0.00     0.010 A 
ATOM     14  C   UNL     1     109.259 112.690  74.361  1.00  0.00    -0.006 A 
ATOM     15  C   UNL     1     110.641 111.127  73.331  1.00  0.00     0.194 C 
ATOM     16  C   UNL     1     109.015 112.744  72.936  1.00  0.00    -0.006 A 
ATOM     17  O   UNL     1     111.466 110.257  73.156  1.00  0.00    -0.289 OA
ATOM     18  C   UNL     1     109.841 111.807  72.291  1.00  0.00     0.030 A 
ATOM     19  C   UNL     1     108.154 113.526  72.186  1.00  0.00     0.009 A 
ATOM     20  C   UNL     1     109.844 111.615  70.924  1.00  0.00     0.013 A 
ATOM     21  C   UNL     1     108.138 113.351  70.797  1.00  0.00     0.001 A 
ATOM     22  C   UNL     1     108.974 112.405  70.173  1.00  0.00     0.001 A 
ENDBRANCH   8   9
BRANCH   2  23
ATOM     23  C   UNL     1     115.906 112.529  79.637  1.00  0.00     0.120 C 
BRANCH  23  24
ATOM     24  C   UNL     1     116.674 113.543  80.436  1.00  0.00    -0.034 A 
ATOM     25  C   UNL     1     116.071 114.748  80.798  1.00  0.00     0.005 A 
ATOM     26  C   UNL     1     117.990 113.279  80.817  1.00  0.00     0.005 A 
ATOM     27  C   UNL     1     116.784 115.690  81.539  1.00  0.00     0.000 A 
ATOM     28  C   UNL     1     118.703 114.221  81.559  1.00  0.00     0.000 A 
ATOM     29  C   UNL     1     118.100 115.426  81.920  1.00  0.00     0.000 A 
ENDBRANCH  23  24
ENDBRANCH   2  23
TORSDOF 3
ENDMDL
MODEL 15
REMARK VINA RESULT:      -9.1      3.159     10.356
REMARK SMILES O=C1c2ccccc2-c2ccc(C(=O)N3CCN(Cc4ccccc4)CC3)cc21
REMARK SMILES IDX 14 1 18 2 15 3 17 4 26 5 16 6 27 7 13 8 12 9 28 10 11 11
REMARK SMILES IDX 29 12 10 13 9 14 2 15 8 16 1 17 3 18 7 19 4 20 6 21 5 22
REMARK SMILES IDX 19 23 20 24 21 25 25 26 22 27 24 28 23 29
REMARK H PARENT
ROOT
ATOM      1  O   UNL     1     108.330 114.031  79.103  1.00  0.00    -0.269 OA
ATOM      2  N   UNL     1     113.286 114.018  79.635  1.00  0.00    -0.296 NA
ATOM      3  N   UNL     1     110.613 114.154  78.615  1.00  0.00    -0.336 N 
ATOM      4  C   UNL     1     112.916 113.276  78.421  1.00  0.00     0.106 C 
ATOM      5  C   UNL     1     112.141 114.105  80.553  1.00  0.00     0.106 C 
ATOM      6  C   UNL     1     111.743 113.946  77.702  1.00  0.00     0.135 C 
ATOM      7  C   UNL     1     110.961 114.802  79.878  1.00  0.00     0.135 C 
ATOM      8  C   UNL     1     109.277 113.856  78.337  1.00  0.00     0.253 C 
ENDROOT
BRANCH   8   9
ATOM      9  C   UNL     1     108.952 113.291  77.020  1.00  0.00     0.040 A 
ATOM     10  C   UNL     1     108.295 112.063  76.940  1.00  0.00     0.026 A 
ATOM     11  C   UNL     1     109.308 113.996  75.855  1.00  0.00     0.014 A 
ATOM     12  C   UNL     1     108.018 111.584  75.676  1.00  0.00     0.031 A 
ATOM     13  C   UNL     1     109.015 113.487  74.583  1.00  0.00     0.010 A 
ATOM     14  C   UNL     1     108.364 112.270  74.499  1.00  0.00    -0.006 A 
ATOM     15  C   UNL     1     107.341 110.332  75.281  1.00  0.00     0.194 C 
ATOM     16  C   UNL     1     107.931 111.497  73.354  1.00  0.00    -0.006 A 
ATOM     17  O   UNL     1     106.900 109.480  76.022  1.00  0.00    -0.289 OA
ATOM     18  C   UNL     1     107.309 110.319  73.803  1.00  0.00     0.030 A 
ATOM     19  C   UNL     1     108.037 111.740  71.996  1.00  0.00     0.009 A 
ATOM     20  C   UNL     1     106.786 109.367  72.950  1.00  0.00     0.013 A 
ATOM     21  C   UNL     1     107.515 110.790  71.110  1.00  0.00     0.001 A 
ATOM     22  C   UNL     1     106.895 109.617  71.582  1.00  0.00     0.001 A 
ENDBRANCH   8   9
BRANCH   2  23
ATOM     23  C   UNL     1     114.427 113.385  80.296  1.00  0.00     0.120 C 
BRANCH  23  24
ATOM     24  C   UNL     1     115.716 114.093  79.993  1.00  0.00    -0.034 A 
ATOM     25  C   UNL     1     116.925 113.565  80.445  1.00  0.00     0.005 A 
ATOM     26  C   UNL     1     115.704 115.279  79.259  1.00  0.00     0.005 A 
ATOM     27  C   UNL     1     118.122 114.222  80.164  1.00  0.00     0.000 A 
ATOM     28  C   UNL     1     116.901 115.936  78.977  1.00  0.00     0.000 A 
ATOM     29  C   UNL     1     118.111 115.408  79.429  1.00  0.00     0.000 A 
ENDBRANCH  23  24
ENDBRANCH   2  23
TORSDOF 3
ENDMDL
