MODEL 1
REMARK VINA RESULT:      -8.6      0.000      0.000
REMARK SMILES O=C1C[C@H](C(=O)N2CCc3nc(C4CCNCC4)ncc3C2)C2(CCCCC2)O1
REMARK SMILES IDX 7 1 11 2 19 3 8 4 22 5 9 6 21 7 10 8 12 9 20 10 5 11 6 12
REMARK SMILES IDX 4 13 29 14 23 15 2 16 24 17 28 18 1 19 3 20 25 21 27 22
REMARK SMILES IDX 26 23 13 24 14 25 18 26 15 27 17 28 16 29
REMARK H PARENT 16 30
ROOT
ATOM      1  N   UNL     1     104.990  92.358 114.986  1.00  0.00    -0.337 N 
ATOM      2  N   UNL     1     102.452  92.469 118.352  1.00  0.00    -0.237 NA
ATOM      3  N   UNL     1     104.193  93.429 119.712  1.00  0.00    -0.241 NA
ATOM      4  C   UNL     1     103.917  91.372 115.138  1.00  0.00     0.126 C 
ATOM      5  C   UNL     1     105.569  92.887 116.232  1.00  0.00     0.158 C 
ATOM      6  C   UNL     1     102.788  91.932 115.996  1.00  0.00     0.078 C 
ATOM      7  C   UNL     1     104.621  92.909 117.394  1.00  0.00     0.011 A 
ATOM      8  C   UNL     1     103.313  92.447 117.308  1.00  0.00     0.051 A 
ATOM      9  C   UNL     1     102.950  92.960 119.502  1.00  0.00     0.131 A 
ATOM     10  C   UNL     1     105.004  93.388 118.636  1.00  0.00     0.120 A 
ENDROOT
BRANCH   1  11
ATOM     11  C   UNL     1     105.507  92.623 113.716  1.00  0.00     0.230 C 
ATOM     12  O   UNL     1     105.355  91.888 112.736  1.00  0.00    -0.274 OA
BRANCH  11  13
ATOM     13  C   UNL     1     106.289  93.899 113.569  1.00  0.00     0.134 C 
ATOM     14  O   UNL     1     105.837  94.806 111.457  1.00  0.00    -0.458 OA
ATOM     15  C   UNL     1     105.530  95.018 112.851  1.00  0.00     0.124 C 
ATOM     16  C   UNL     1     106.995  94.094 111.324  1.00  0.00     0.307 C 
ATOM     17  C   UNL     1     104.004  94.980 113.037  1.00  0.00     0.049 C 
ATOM     18  C   UNL     1     106.082  96.404 113.262  1.00  0.00     0.049 C 
ATOM     19  O   UNL     1     107.551  93.870 110.260  1.00  0.00    -0.252 OA
ATOM     20  C   UNL     1     107.486  93.648 112.670  1.00  0.00     0.140 C 
ATOM     21  C   UNL     1     103.295  96.142 112.339  1.00  0.00     0.004 C 
ATOM     22  C   UNL     1     105.366  97.555 112.556  1.00  0.00     0.004 C 
ATOM     23  C   UNL     1     103.860  97.490 112.769  1.00  0.00     0.000 C 
ENDBRANCH  11  13
ENDBRANCH   1  11
BRANCH   9  24
ATOM     24  C   UNL     1     102.006  92.989 120.689  1.00  0.00     0.060 C 
ATOM     25  C   UNL     1     102.621  93.703 121.905  1.00  0.00     0.027 C 
ATOM     26  C   UNL     1     101.531  91.583 121.092  1.00  0.00     0.027 C 
ATOM     27  C   UNL     1     101.666  93.677 123.097  1.00  0.00     0.081 C 
ATOM     28  C   UNL     1     100.619  91.642 122.317  1.00  0.00     0.081 C 
ATOM     29  N   UNL     1     101.274  92.311 123.441  1.00  0.00    -0.317 NA
ATOM     30  H   UNL     1     102.108  91.782 123.700  1.00  0.00     0.122 HD
ENDBRANCH   9  24
TORSDOF 3
ENDMDL
MODEL 2
REMARK VINA RESULT:      -8.1      0.924      1.191
REMARK SMILES O=C1C[C@H](C(=O)N2CCc3nc(C4CCNCC4)ncc3C2)C2(CCCCC2)O1
REMARK SMILES IDX 7 1 11 2 19 3 8 4 22 5 9 6 21 7 10 8 12 9 20 10 5 11 6 12
REMARK SMILES IDX 4 13 29 14 23 15 2 16 24 17 28 18 1 19 3 20 25 21 27 22
REMARK SMILES IDX 26 23 13 24 14 25 18 26 15 27 17 28 16 29
REMARK H PARENT 16 30
ROOT
ATOM      1  N   UNL     1     105.193  93.028 114.995  1.00  0.00    -0.337 N 
ATOM      2  N   UNL     1     102.500  92.420 118.182  1.00  0.00    -0.237 NA
ATOM      3  N   UNL     1     103.936  93.612 119.705  1.00  0.00    -0.241 NA
ATOM      4  C   UNL     1     104.332  91.843 115.022  1.00  0.00     0.126 C 
ATOM      5  C   UNL     1     105.585  93.578 116.304  1.00  0.00     0.158 C 
ATOM      6  C   UNL     1     103.068  92.113 115.830  1.00  0.00     0.078 C 
ATOM      7  C   UNL     1     104.587  93.338 117.398  1.00  0.00     0.011 A 
ATOM      8  C   UNL     1     103.405  92.635 117.200  1.00  0.00     0.051 A 
ATOM      9  C   UNL     1     102.825  92.923 119.388  1.00  0.00     0.131 A 
ATOM     10  C   UNL     1     104.797  93.802 118.686  1.00  0.00     0.120 A 
ENDROOT
BRANCH   1  11
ATOM     11  C   UNL     1     105.717  93.472 113.779  1.00  0.00     0.230 C 
ATOM     12  O   UNL     1     106.222  92.733 112.928  1.00  0.00    -0.274 OA
BRANCH  11  13
ATOM     13  C   UNL     1     105.637  94.950 113.519  1.00  0.00     0.134 C 
ATOM     14  O   UNL     1     104.813  95.280 111.352  1.00  0.00    -0.458 OA
ATOM     15  C   UNL     1     104.398  95.381 112.730  1.00  0.00     0.124 C 
ATOM     16  C   UNL     1     106.174  95.348 111.255  1.00  0.00     0.307 C 
ATOM     17  C   UNL     1     103.161  94.494 112.945  1.00  0.00     0.049 C 
ATOM     18  C   UNL     1     104.050  96.860 113.023  1.00  0.00     0.049 C 
ATOM     19  O   UNL     1     106.790  95.404 110.202  1.00  0.00    -0.252 OA
ATOM     20  C   UNL     1     106.791  95.362 112.622  1.00  0.00     0.140 C 
ATOM     21  C   UNL     1     101.938  94.990 112.171  1.00  0.00     0.004 C 
ATOM     22  C   UNL     1     102.828  97.342 112.242  1.00  0.00     0.004 C 
ATOM     23  C   UNL     1     101.621  96.446 112.486  1.00  0.00     0.000 C 
ENDBRANCH  11  13
ENDBRANCH   1  11
BRANCH   9  24
ATOM     24  C   UNL     1     101.830  92.689 120.508  1.00  0.00     0.060 C 
ATOM     25  C   UNL     1     102.285  93.323 121.834  1.00  0.00     0.027 C 
ATOM     26  C   UNL     1     101.528  91.196 120.718  1.00  0.00     0.027 C 
ATOM     27  C   UNL     1     101.285  93.033 122.952  1.00  0.00     0.081 C 
ATOM     28  C   UNL     1     100.558  90.990 121.882  1.00  0.00     0.081 C 
ATOM     29  N   UNL     1     101.063  91.597 123.114  1.00  0.00    -0.317 NA
ATOM     30  H   UNL     1     101.946  91.151 123.363  1.00  0.00     0.122 HD
ENDBRANCH   9  24
TORSDOF 3
ENDMDL
MODEL 3
REMARK VINA RESULT:      -8.1      1.480      2.101
REMARK SMILES O=C1C[C@H](C(=O)N2CCc3nc(C4CCNCC4)ncc3C2)C2(CCCCC2)O1
REMARK SMILES IDX 7 1 11 2 19 3 8 4 22 5 9 6 21 7 10 8 12 9 20 10 5 11 6 12
REMARK SMILES IDX 4 13 29 14 23 15 2 16 24 17 28 18 1 19 3 20 25 21 27 22
REMARK SMILES IDX 26 23 13 24 14 25 18 26 15 27 17 28 16 29
REMARK H PARENT 16 30
ROOT
ATOM      1  N   UNL     1     105.748  94.303 115.633  1.00  0.00    -0.337 N 
ATOM      2  N   UNL     1     103.218  92.771 118.638  1.00  0.00    -0.237 NA
ATOM      3  N   UNL     1     102.854  94.974 119.542  1.00  0.00    -0.241 NA
ATOM      4  C   UNL     1     105.940  92.942 116.140  1.00  0.00     0.126 C 
ATOM      5  C   UNL     1     105.184  95.278 116.580  1.00  0.00     0.158 C 
ATOM      6  C   UNL     1     104.633  92.382 116.690  1.00  0.00     0.078 C 
ATOM      7  C   UNL     1     104.287  94.679 117.623  1.00  0.00     0.011 A 
ATOM      8  C   UNL     1     104.030  93.315 117.703  1.00  0.00     0.051 A 
ATOM      9  C   UNL     1     102.677  93.641 119.512  1.00  0.00     0.131 A 
ATOM     10  C   UNL     1     103.666  95.461 118.583  1.00  0.00     0.120 A 
ENDROOT
BRANCH   1  11
ATOM     11  C   UNL     1     106.239  94.642 114.370  1.00  0.00     0.230 C 
ATOM     12  O   UNL     1     107.246  94.146 113.859  1.00  0.00    -0.274 OA
BRANCH  11  13
ATOM     13  C   UNL     1     105.459  95.678 113.609  1.00  0.00     0.134 C 
ATOM     14  O   UNL     1     104.877  94.786 111.524  1.00  0.00    -0.458 OA
ATOM     15  C   UNL     1     104.289  95.113 112.800  1.00  0.00     0.124 C 
ATOM     16  C   UNL     1     106.017  95.511 111.321  1.00  0.00     0.307 C 
ATOM     17  C   UNL     1     103.653  93.845 113.395  1.00  0.00     0.049 C 
ATOM     18  C   UNL     1     103.208  96.195 112.572  1.00  0.00     0.049 C 
ATOM     19  O   UNL     1     106.654  95.522 110.279  1.00  0.00    -0.252 OA
ATOM     20  C   UNL     1     106.355  96.299 112.552  1.00  0.00     0.140 C 
ATOM     21  C   UNL     1     102.462  93.343 112.575  1.00  0.00     0.004 C 
ATOM     22  C   UNL     1     102.025  95.680 111.751  1.00  0.00     0.004 C 
ATOM     23  C   UNL     1     101.415  94.432 112.373  1.00  0.00     0.000 C 
ENDBRANCH  11  13
ENDBRANCH   1  11
BRANCH   9  24
ATOM     24  C   UNL     1     101.769  93.054 120.575  1.00  0.00     0.060 C 
ATOM     25  C   UNL     1     102.139  93.535 121.988  1.00  0.00     0.027 C 
ATOM     26  C   UNL     1     101.740  91.517 120.535  1.00  0.00     0.027 C 
ATOM     27  C   UNL     1     101.236  92.893 123.041  1.00  0.00     0.081 C 
ATOM     28  C   UNL     1     100.852  90.955 121.646  1.00  0.00     0.081 C 
ATOM     29  N   UNL     1     101.275  91.433 122.963  1.00  0.00    -0.317 NA
ATOM     30  H   UNL     1     102.229  91.117 123.138  1.00  0.00     0.122 HD
ENDBRANCH   9  24
TORSDOF 3
ENDMDL
MODEL 4
REMARK VINA RESULT:      -7.9      0.956      1.213
REMARK SMILES O=C1C[C@H](C(=O)N2CCc3nc(C4CCNCC4)ncc3C2)C2(CCCCC2)O1
REMARK SMILES IDX 7 1 11 2 19 3 8 4 22 5 9 6 21 7 10 8 12 9 20 10 5 11 6 12
REMARK SMILES IDX 4 13 29 14 23 15 2 16 24 17 28 18 1 19 3 20 25 21 27 22
REMARK SMILES IDX 26 23 13 24 14 25 18 26 15 27 17 28 16 29
REMARK H PARENT 16 30
ROOT
ATOM      1  N   UNL     1     105.317  92.560 114.998  1.00  0.00    -0.337 N 
ATOM      2  N   UNL     1     103.050  92.842 118.542  1.00  0.00    -0.237 NA
ATOM      3  N   UNL     1     104.918  93.783 119.736  1.00  0.00    -0.241 NA
ATOM      4  C   UNL     1     104.230  91.613 115.260  1.00  0.00     0.126 C 
ATOM      5  C   UNL     1     106.006  93.104 116.180  1.00  0.00     0.158 C 
ATOM      6  C   UNL     1     103.188  92.231 116.185  1.00  0.00     0.078 C 
ATOM      7  C   UNL     1     105.151  93.187 117.409  1.00  0.00     0.011 A 
ATOM      8  C   UNL     1     103.827  92.764 117.437  1.00  0.00     0.051 A 
ATOM      9  C   UNL     1     103.649  93.348 119.636  1.00  0.00     0.131 A 
ATOM     10  C   UNL     1     105.643  93.688 118.603  1.00  0.00     0.120 A 
ENDROOT
BRANCH   1  11
ATOM     11  C   UNL     1     105.742  92.774 113.684  1.00  0.00     0.230 C 
ATOM     12  O   UNL     1     105.547  91.988 112.754  1.00  0.00    -0.274 OA
BRANCH  11  13
ATOM     13  C   UNL     1     106.476  94.060 113.424  1.00  0.00     0.134 C 
ATOM     14  O   UNL     1     105.841  94.863 111.318  1.00  0.00    -0.458 OA
ATOM     15  C   UNL     1     105.636  95.129 112.721  1.00  0.00     0.124 C 
ATOM     16  C   UNL     1     107.004  94.173 111.126  1.00  0.00     0.307 C 
ATOM     17  C   UNL     1     104.130  95.063 113.026  1.00  0.00     0.049 C 
ATOM     18  C   UNL     1     106.180  96.543 113.030  1.00  0.00     0.049 C 
ATOM     19  O   UNL     1     107.483  93.916 110.032  1.00  0.00    -0.252 OA
ATOM     20  C   UNL     1     107.608  93.798 112.447  1.00  0.00     0.140 C 
ATOM     21  C   UNL     1     103.339  96.177 112.337  1.00  0.00     0.004 C 
ATOM     22  C   UNL     1     105.382  97.646 112.334  1.00  0.00     0.004 C 
ATOM     23  C   UNL     1     103.899  97.556 112.665  1.00  0.00     0.000 C 
ENDBRANCH  11  13
ENDBRANCH   1  11
BRANCH   9  24
ATOM     24  C   UNL     1     102.802  93.439 120.890  1.00  0.00     0.060 C 
ATOM     25  C   UNL     1     101.401  94.007 120.607  1.00  0.00     0.027 C 
ATOM     26  C   UNL     1     103.485  94.258 121.999  1.00  0.00     0.027 C 
ATOM     27  C   UNL     1     100.587  94.128 121.895  1.00  0.00     0.081 C 
ATOM     28  C   UNL     1     102.588  94.369 123.232  1.00  0.00     0.081 C 
ATOM     29  N   UNL     1     101.283  94.938 122.895  1.00  0.00    -0.317 NA
ATOM     30  H   UNL     1     101.419  95.878 122.524  1.00  0.00     0.122 HD
ENDBRANCH   9  24
TORSDOF 3
ENDMDL
MODEL 5
REMARK VINA RESULT:      -7.3      3.973      5.182
REMARK SMILES O=C1C[C@H](C(=O)N2CCc3nc(C4CCNCC4)ncc3C2)C2(CCCCC2)O1
REMARK SMILES IDX 7 1 11 2 19 3 8 4 22 5 9 6 21 7 10 8 12 9 20 10 5 11 6 12
REMARK SMILES IDX 4 13 29 14 23 15 2 16 24 17 28 18 1 19 3 20 25 21 27 22
REMARK SMILES IDX 26 23 13 24 14 25 18 26 15 27 17 28 16 29
REMARK H PARENT 16 30
ROOT
ATOM      1  N   UNL     1     105.599  94.733 116.561  1.00  0.00    -0.337 N 
ATOM      2  N   UNL     1     106.264  96.940 120.091  1.00  0.00    -0.237 NA
ATOM      3  N   UNL     1     105.216  98.891 119.144  1.00  0.00    -0.241 NA
ATOM      4  C   UNL     1     106.747  94.429 117.419  1.00  0.00     0.126 C 
ATOM      5  C   UNL     1     105.136  96.130 116.562  1.00  0.00     0.158 C 
ATOM      6  C   UNL     1     106.468  94.845 118.859  1.00  0.00     0.078 C 
ATOM      7  C   UNL     1     105.393  96.865 117.844  1.00  0.00     0.011 A 
ATOM      8  C   UNL     1     106.035  96.283 118.931  1.00  0.00     0.051 A 
ATOM      9  C   UNL     1     105.840  98.217 120.127  1.00  0.00     0.131 A 
ATOM     10  C   UNL     1     105.008  98.185 118.015  1.00  0.00     0.120 A 
ENDROOT
BRANCH   1  11
ATOM     11  C   UNL     1     105.113  93.755 115.690  1.00  0.00     0.230 C 
ATOM     12  O   UNL     1     103.940  93.374 115.657  1.00  0.00    -0.274 OA
BRANCH  11  13
ATOM     13  C   UNL     1     106.112  93.153 114.741  1.00  0.00     0.134 C 
ATOM     14  O   UNL     1     105.007  92.604 112.751  1.00  0.00    -0.458 OA
ATOM     15  C   UNL     1     105.926  93.580 113.283  1.00  0.00     0.124 C 
ATOM     16  C   UNL     1     105.041  91.459 113.494  1.00  0.00     0.307 C 
ATOM     17  C   UNL     1     105.325  94.984 113.098  1.00  0.00     0.049 C 
ATOM     18  C   UNL     1     107.258  93.465 112.505  1.00  0.00     0.049 C 
ATOM     19  O   UNL     1     104.452  90.429 113.204  1.00  0.00    -0.252 OA
ATOM     20  C   UNL     1     105.915  91.648 114.698  1.00  0.00     0.140 C 
ATOM     21  C   UNL     1     105.200  95.383 111.626  1.00  0.00     0.004 C 
ATOM     22  C   UNL     1     107.118  93.865 111.036  1.00  0.00     0.004 C 
ATOM     23  C   UNL     1     106.529  95.262 110.892  1.00  0.00     0.000 C 
ENDBRANCH  11  13
ENDBRANCH   1  11
BRANCH   9  24
ATOM     24  C   UNL     1     106.092  98.977 121.415  1.00  0.00     0.060 C 
ATOM     25  C   UNL     1     107.522  98.774 121.941  1.00  0.00     0.027 C 
ATOM     26  C   UNL     1     105.074  98.622 122.512  1.00  0.00     0.027 C 
ATOM     27  C   UNL     1     107.732  99.516 123.261  1.00  0.00     0.081 C 
ATOM     28  C   UNL     1     105.382  99.370 123.809  1.00  0.00     0.081 C 
ATOM     29  N   UNL     1     106.748  99.113 124.265  1.00  0.00    -0.317 NA
ATOM     30  H   UNL     1     106.853  98.115 124.449  1.00  0.00     0.122 HD
ENDBRANCH   9  24
TORSDOF 3
ENDMDL
MODEL 6
REMARK VINA RESULT:      -7.2     13.898     16.585
REMARK SMILES O=C1C[C@H](C(=O)N2CCc3nc(C4CCNCC4)ncc3C2)C2(CCCCC2)O1
REMARK SMILES IDX 7 1 11 2 19 3 8 4 22 5 9 6 21 7 10 8 12 9 20 10 5 11 6 12
REMARK SMILES IDX 4 13 29 14 23 15 2 16 24 17 28 18 1 19 3 20 25 21 27 22
REMARK SMILES IDX 26 23 13 24 14 25 18 26 15 27 17 28 16 29
REMARK H PARENT 16 30
ROOT
ATOM      1  N   UNL     1     118.884  97.735 121.553  1.00  0.00    -0.337 N 
ATOM      2  N   UNL     1     117.909 101.478 119.875  1.00  0.00    -0.237 NA
ATOM      3  N   UNL     1     117.275 100.450 117.791  1.00  0.00    -0.241 NA
ATOM      4  C   UNL     1     119.575  98.948 121.996  1.00  0.00     0.126 C 
ATOM      5  C   UNL     1     118.405  97.729 120.161  1.00  0.00     0.158 C 
ATOM      6  C   UNL     1     118.700 100.177 121.781  1.00  0.00     0.078 C 
ATOM      7  C   UNL     1     118.067  99.086 119.618  1.00  0.00     0.011 A 
ATOM      8  C   UNL     1     118.217 100.253 120.359  1.00  0.00     0.051 A 
ATOM      9  C   UNL     1     117.455 101.504 118.608  1.00  0.00     0.131 A 
ATOM     10  C   UNL     1     117.591  99.255 118.328  1.00  0.00     0.120 A 
ENDROOT
BRANCH   1  11
ATOM     11  C   UNL     1     118.851  96.617 122.390  1.00  0.00     0.230 C 
ATOM     12  O   UNL     1     119.711  95.732 122.402  1.00  0.00    -0.274 OA
BRANCH  11  13
ATOM     13  C   UNL     1     117.680  96.522 123.328  1.00  0.00     0.134 C 
ATOM     14  O   UNL     1     115.712  96.778 122.085  1.00  0.00    -0.458 OA
ATOM     15  C   UNL     1     116.481  95.760 122.758  1.00  0.00     0.124 C 
ATOM     16  C   UNL     1     116.003  98.013 122.593  1.00  0.00     0.307 C 
ATOM     17  C   UNL     1     116.844  94.660 121.746  1.00  0.00     0.049 C 
ATOM     18  C   UNL     1     115.615  95.171 123.896  1.00  0.00     0.049 C 
ATOM     19  O   UNL     1     115.416  99.040 122.291  1.00  0.00    -0.252 OA
ATOM     20  C   UNL     1     117.129  97.915 123.579  1.00  0.00     0.140 C 
ATOM     21  C   UNL     1     115.618  93.898 121.238  1.00  0.00     0.004 C 
ATOM     22  C   UNL     1     114.394  94.414 123.374  1.00  0.00     0.004 C 
ATOM     23  C   UNL     1     114.791  93.329 122.384  1.00  0.00     0.000 C 
ENDBRANCH  11  13
ENDBRANCH   1  11
BRANCH   9  24
ATOM     24  C   UNL     1     117.110 102.867 118.040  1.00  0.00     0.060 C 
ATOM     25  C   UNL     1     115.712 103.341 118.471  1.00  0.00     0.027 C 
ATOM     26  C   UNL     1     117.228 102.908 116.507  1.00  0.00     0.027 C 
ATOM     27  C   UNL     1     115.375 104.695 117.848  1.00  0.00     0.081 C 
ATOM     28  C   UNL     1     116.831 104.280 115.962  1.00  0.00     0.081 C 
ATOM     29  N   UNL     1     115.483 104.657 116.390  1.00  0.00    -0.317 NA
ATOM     30  H   UNL     1     114.819 103.973 116.026  1.00  0.00     0.122 HD
ENDBRANCH   9  24
TORSDOF 3
ENDMDL
MODEL 7
REMARK VINA RESULT:      -7.2     12.646     14.884
REMARK SMILES O=C1C[C@H](C(=O)N2CCc3nc(C4CCNCC4)ncc3C2)C2(CCCCC2)O1
REMARK SMILES IDX 7 1 11 2 19 3 8 4 22 5 9 6 21 7 10 8 12 9 20 10 5 11 6 12
REMARK SMILES IDX 4 13 29 14 23 15 2 16 24 17 28 18 1 19 3 20 25 21 27 22
REMARK SMILES IDX 26 23 13 24 14 25 18 26 15 27 17 28 16 29
REMARK H PARENT 16 30
ROOT
ATOM      1  N   UNL     1     113.936  96.589 123.245  1.00  0.00    -0.337 N 
ATOM      2  N   UNL     1     118.019  96.647 122.194  1.00  0.00    -0.237 NA
ATOM      3  N   UNL     1     117.828  94.519 121.082  1.00  0.00    -0.241 NA
ATOM      4  C   UNL     1     114.909  97.286 124.091  1.00  0.00     0.126 C 
ATOM      5  C   UNL     1     114.440  95.429 122.492  1.00  0.00     0.158 C 
ATOM      6  C   UNL     1     116.117  97.728 123.272  1.00  0.00     0.078 C 
ATOM      7  C   UNL     1     115.896  95.506 122.141  1.00  0.00     0.011 A 
ATOM      8  C   UNL     1     116.707  96.571 122.514  1.00  0.00     0.051 A 
ATOM      9  C   UNL     1     118.506  95.605 121.494  1.00  0.00     0.131 A 
ATOM     10  C   UNL     1     116.524  94.501 121.423  1.00  0.00     0.120 A 
ENDROOT
BRANCH   1  11
ATOM     11  C   UNL     1     112.587  96.946 123.311  1.00  0.00     0.230 C 
ATOM     12  O   UNL     1     111.927  96.978 124.353  1.00  0.00    -0.274 OA
BRANCH  11  13
ATOM     13  C   UNL     1     111.932  97.314 122.010  1.00  0.00     0.134 C 
ATOM     14  O   UNL     1     110.662  99.254 122.341  1.00  0.00    -0.458 OA
ATOM     15  C   UNL     1     111.895  98.819 121.731  1.00  0.00     0.124 C 
ATOM     16  C   UNL     1     109.795  98.207 122.468  1.00  0.00     0.307 C 
ATOM     17  C   UNL     1     113.062  99.612 122.343  1.00  0.00     0.049 C 
ATOM     18  C   UNL     1     111.805  99.092 120.211  1.00  0.00     0.049 C 
ATOM     19  O   UNL     1     108.637  98.309 122.845  1.00  0.00    -0.252 OA
ATOM     20  C   UNL     1     110.465  96.927 122.063  1.00  0.00     0.140 C 
ATOM     21  C   UNL     1     113.005 101.102 122.001  1.00  0.00     0.004 C 
ATOM     22  C   UNL     1     111.748 100.584 119.884  1.00  0.00     0.004 C 
ATOM     23  C   UNL     1     112.922 101.335 120.497  1.00  0.00     0.000 C 
ENDBRANCH  11  13
ENDBRANCH   1  11
BRANCH   9  24
ATOM     24  C   UNL     1     119.977  95.664 121.130  1.00  0.00     0.060 C 
ATOM     25  C   UNL     1     120.828  96.297 122.243  1.00  0.00     0.027 C 
ATOM     26  C   UNL     1     120.221  96.399 119.801  1.00  0.00     0.027 C 
ATOM     27  C   UNL     1     122.297  96.382 121.829  1.00  0.00     0.081 C 
ATOM     28  C   UNL     1     121.715  96.480 119.484  1.00  0.00     0.081 C 
ATOM     29  N   UNL     1     122.459  97.113 120.573  1.00  0.00    -0.317 NA
ATOM     30  H   UNL     1     122.116  98.066 120.698  1.00  0.00     0.122 HD
ENDBRANCH   9  24
TORSDOF 3
ENDMDL
MODEL 8
REMARK VINA RESULT:      -7.1      4.336      5.862
REMARK SMILES O=C1C[C@H](C(=O)N2CCc3nc(C4CCNCC4)ncc3C2)C2(CCCCC2)O1
REMARK SMILES IDX 7 1 11 2 19 3 8 4 22 5 9 6 21 7 10 8 12 9 20 10 5 11 6 12
REMARK SMILES IDX 4 13 29 14 23 15 2 16 24 17 28 18 1 19 3 20 25 21 27 22
REMARK SMILES IDX 26 23 13 24 14 25 18 26 15 27 17 28 16 29
REMARK H PARENT 16 30
ROOT
ATOM      1  N   UNL     1     103.752  94.429 116.340  1.00  0.00    -0.337 N 
ATOM      2  N   UNL     1     104.154  98.404 117.687  1.00  0.00    -0.237 NA
ATOM      3  N   UNL     1     105.703  97.732 119.404  1.00  0.00    -0.241 NA
ATOM      4  C   UNL     1     102.645  95.378 116.190  1.00  0.00     0.126 C 
ATOM      5  C   UNL     1     104.648  94.650 117.487  1.00  0.00     0.158 C 
ATOM      6  C   UNL     1     103.167  96.809 116.129  1.00  0.00     0.078 C 
ATOM      7  C   UNL     1     104.758  96.082 117.919  1.00  0.00     0.011 A 
ATOM      8  C   UNL     1     104.054  97.111 117.304  1.00  0.00     0.051 A 
ATOM      9  C   UNL     1     104.978  98.639 118.726  1.00  0.00     0.131 A 
ATOM     10  C   UNL     1     105.570  96.461 118.975  1.00  0.00     0.120 A 
ENDROOT
BRANCH   1  11
ATOM     11  C   UNL     1     103.812  93.306 115.512  1.00  0.00     0.230 C 
ATOM     12  O   UNL     1     102.830  92.642 115.168  1.00  0.00    -0.274 OA
BRANCH  11  13
ATOM     13  C   UNL     1     105.178  92.912 115.022  1.00  0.00     0.134 C 
ATOM     14  O   UNL     1     104.985  92.159 112.813  1.00  0.00    -0.458 OA
ATOM     15  C   UNL     1     105.455  93.296 113.567  1.00  0.00     0.124 C 
ATOM     16  C   UNL     1     104.958  91.042 113.598  1.00  0.00     0.307 C 
ATOM     17  C   UNL     1     104.715  94.555 113.084  1.00  0.00     0.049 C 
ATOM     18  C   UNL     1     106.975  93.445 113.320  1.00  0.00     0.049 C 
ATOM     19  O   UNL     1     104.712  89.917 113.192  1.00  0.00    -0.252 OA
ATOM     20  C   UNL     1     105.288  91.398 115.018  1.00  0.00     0.140 C 
ATOM     21  C   UNL     1     105.059  94.923 111.639  1.00  0.00     0.004 C 
ATOM     22  C   UNL     1     107.303  93.811 111.873  1.00  0.00     0.004 C 
ATOM     23  C   UNL     1     106.561  95.065 111.432  1.00  0.00     0.000 C 
ENDBRANCH  11  13
ENDBRANCH   1  11
BRANCH   9  24
ATOM     24  C   UNL     1     105.101 100.081 119.179  1.00  0.00     0.060 C 
ATOM     25  C   UNL     1     104.601 101.071 118.114  1.00  0.00     0.027 C 
ATOM     26  C   UNL     1     106.537 100.441 119.597  1.00  0.00     0.027 C 
ATOM     27  C   UNL     1     104.779 102.515 118.582  1.00  0.00     0.081 C 
ATOM     28  C   UNL     1     106.638 101.911 120.005  1.00  0.00     0.081 C 
ATOM     29  N   UNL     1     106.169 102.796 118.939  1.00  0.00    -0.317 NA
ATOM     30  H   UNL     1     106.756 102.661 118.116  1.00  0.00     0.122 HD
ENDBRANCH   9  24
TORSDOF 3
ENDMDL
MODEL 9
REMARK VINA RESULT:      -7.1      2.038      2.788
REMARK SMILES O=C1C[C@H](C(=O)N2CCc3nc(C4CCNCC4)ncc3C2)C2(CCCCC2)O1
REMARK SMILES IDX 7 1 11 2 19 3 8 4 22 5 9 6 21 7 10 8 12 9 20 10 5 11 6 12
REMARK SMILES IDX 4 13 29 14 23 15 2 16 24 17 28 18 1 19 3 20 25 21 27 22
REMARK SMILES IDX 26 23 13 24 14 25 18 26 15 27 17 28 16 29
REMARK H PARENT 16 30
ROOT
ATOM      1  N   UNL     1     106.107  93.871 116.166  1.00  0.00    -0.337 N 
ATOM      2  N   UNL     1     103.855  94.266 119.709  1.00  0.00    -0.237 NA
ATOM      3  N   UNL     1     104.728  96.478 120.091  1.00  0.00    -0.241 NA
ATOM      4  C   UNL     1     105.764  92.689 116.962  1.00  0.00     0.126 C 
ATOM      5  C   UNL     1     106.260  95.133 116.908  1.00  0.00     0.158 C 
ATOM      6  C   UNL     1     104.494  92.933 117.769  1.00  0.00     0.078 C 
ATOM      7  C   UNL     1     105.432  95.222 118.155  1.00  0.00     0.011 A 
ATOM      8  C   UNL     1     104.608  94.189 118.587  1.00  0.00     0.051 A 
ATOM      9  C   UNL     1     103.964  95.416 120.402  1.00  0.00     0.131 A 
ATOM     10  C   UNL     1     105.450  96.348 118.961  1.00  0.00     0.120 A 
ENDROOT
BRANCH   1  11
ATOM     11  C   UNL     1     106.419  93.722 114.813  1.00  0.00     0.230 C 
ATOM     12  O   UNL     1     107.189  92.867 114.367  1.00  0.00    -0.274 OA
BRANCH  11  13
ATOM     13  C   UNL     1     105.751  94.680 113.867  1.00  0.00     0.134 C 
ATOM     14  O   UNL     1     105.220  93.529 111.897  1.00  0.00    -0.458 OA
ATOM     15  C   UNL     1     104.590  94.072 113.076  1.00  0.00     0.124 C 
ATOM     16  C   UNL     1     106.415  94.149 111.664  1.00  0.00     0.307 C 
ATOM     17  C   UNL     1     103.840  92.943 113.805  1.00  0.00     0.049 C 
ATOM     18  C   UNL     1     103.596  95.170 112.631  1.00  0.00     0.049 C 
ATOM     19  O   UNL     1     107.105  93.971 110.672  1.00  0.00    -0.252 OA
ATOM     20  C   UNL     1     106.740  95.087 112.789  1.00  0.00     0.140 C 
ATOM     21  C   UNL     1     102.663  92.398 112.994  1.00  0.00     0.004 C 
ATOM     22  C   UNL     1     102.426  94.611 111.821  1.00  0.00     0.004 C 
ATOM     23  C   UNL     1     101.703  93.504 112.576  1.00  0.00     0.000 C 
ENDBRANCH  11  13
ENDBRANCH   1  11
BRANCH   9  24
ATOM     24  C   UNL     1     103.136  95.524 121.667  1.00  0.00     0.060 C 
ATOM     25  C   UNL     1     103.596  96.681 122.569  1.00  0.00     0.027 C 
ATOM     26  C   UNL     1     103.119  94.211 122.468  1.00  0.00     0.027 C 
ATOM     27  C   UNL     1     102.773  96.737 123.855  1.00  0.00     0.081 C 
ATOM     28  C   UNL     1     102.314  94.365 123.759  1.00  0.00     0.081 C 
ATOM     29  N   UNL     1     102.821  95.467 124.578  1.00  0.00    -0.317 NA
ATOM     30  H   UNL     1     103.788  95.268 124.836  1.00  0.00     0.122 HD
ENDBRANCH   9  24
TORSDOF 3
ENDMDL
MODEL 10
REMARK VINA RESULT:      -7.0     12.905     14.690
REMARK SMILES O=C1C[C@H](C(=O)N2CCc3nc(C4CCNCC4)ncc3C2)C2(CCCCC2)O1
REMARK SMILES IDX 7 1 11 2 19 3 8 4 22 5 9 6 21 7 10 8 12 9 20 10 5 11 6 12
REMARK SMILES IDX 4 13 29 14 23 15 2 16 24 17 28 18 1 19 3 20 25 21 27 22
REMARK SMILES IDX 26 23 13 24 14 25 18 26 15 27 17 28 16 29
REMARK H PARENT 16 30
ROOT
ATOM      1  N   UNL     1     117.408  98.976 121.832  1.00  0.00    -0.337 N 
ATOM      2  N   UNL     1     113.471 100.473 122.025  1.00  0.00    -0.237 NA
ATOM      3  N   UNL     1     113.552 101.160 119.718  1.00  0.00    -0.241 NA
ATOM      4  C   UNL     1     116.871  99.486 123.095  1.00  0.00     0.126 C 
ATOM      5  C   UNL     1     116.873  99.585 120.603  1.00  0.00     0.158 C 
ATOM      6  C   UNL     1     115.351  99.371 123.121  1.00  0.00     0.078 C 
ATOM      7  C   UNL     1     115.468 100.095 120.727  1.00  0.00     0.011 A 
ATOM      8  C   UNL     1     114.741 100.020 121.910  1.00  0.00     0.051 A 
ATOM      9  C   UNL     1     112.950 101.024 120.913  1.00  0.00     0.131 A 
ATOM     10  C   UNL     1     114.812 100.685 119.659  1.00  0.00     0.120 A 
ENDROOT
BRANCH   1  11
ATOM     11  C   UNL     1     118.480  98.080 121.851  1.00  0.00     0.230 C 
ATOM     12  O   UNL     1     119.397  98.111 122.677  1.00  0.00    -0.274 OA
BRANCH  11  13
ATOM     13  C   UNL     1     118.481  97.020 120.786  1.00  0.00     0.134 C 
ATOM     14  O   UNL     1     118.813  94.940 121.810  1.00  0.00    -0.458 OA
ATOM     15  C   UNL     1     117.772  95.725 121.192  1.00  0.00     0.124 C 
ATOM     16  C   UNL     1     120.043  95.353 121.383  1.00  0.00     0.307 C 
ATOM     17  C   UNL     1     116.624  95.911 122.198  1.00  0.00     0.049 C 
ATOM     18  C   UNL     1     117.268  94.962 119.944  1.00  0.00     0.049 C 
ATOM     19  O   UNL     1     121.094  94.793 121.654  1.00  0.00    -0.252 OA
ATOM     20  C   UNL     1     119.909  96.577 120.525  1.00  0.00     0.140 C 
ATOM     21  C   UNL     1     115.920  94.596 122.539  1.00  0.00     0.004 C 
ATOM     22  C   UNL     1     116.569  93.650 120.299  1.00  0.00     0.004 C 
ATOM     23  C   UNL     1     115.433  93.874 121.289  1.00  0.00     0.000 C 
ENDBRANCH  11  13
ENDBRANCH   1  11
BRANCH   9  24
ATOM     24  C   UNL     1     111.531 101.547 121.019  1.00  0.00     0.060 C 
ATOM     25  C   UNL     1     110.485 100.428 120.881  1.00  0.00     0.027 C 
ATOM     26  C   UNL     1     111.241 102.663 120.000  1.00  0.00     0.027 C 
ATOM     27  C   UNL     1     109.066 100.991 120.947  1.00  0.00     0.081 C 
ATOM     28  C   UNL     1     109.791 103.137 120.102  1.00  0.00     0.081 C 
ATOM     29  N   UNL     1     108.852 102.027 119.938  1.00  0.00    -0.317 NA
ATOM     30  H   UNL     1     108.982 101.619 119.011  1.00  0.00     0.122 HD
ENDBRANCH   9  24
TORSDOF 3
ENDMDL
MODEL 11
REMARK VINA RESULT:      -7.0     12.892     14.191
REMARK SMILES O=C1C[C@H](C(=O)N2CCc3nc(C4CCNCC4)ncc3C2)C2(CCCCC2)O1
REMARK SMILES IDX 7 1 11 2 19 3 8 4 22 5 9 6 21 7 10 8 12 9 20 10 5 11 6 12
REMARK SMILES IDX 4 13 29 14 23 15 2 16 24 17 28 18 1 19 3 20 25 21 27 22
REMARK SMILES IDX 26 23 13 24 14 25 18 26 15 27 17 28 16 29
REMARK H PARENT 16 30
ROOT
ATOM      1  N   UNL     1     117.537  95.383 122.435  1.00  0.00    -0.337 N 
ATOM      2  N   UNL     1     113.392  96.120 122.655  1.00  0.00    -0.237 NA
ATOM      3  N   UNL     1     113.710  97.746 124.404  1.00  0.00    -0.241 NA
ATOM      4  C   UNL     1     116.578  94.328 122.099  1.00  0.00     0.126 C 
ATOM      5  C   UNL     1     117.095  96.372 123.432  1.00  0.00     0.158 C 
ATOM      6  C   UNL     1     115.257  94.928 121.632  1.00  0.00     0.078 C 
ATOM      7  C   UNL     1     115.613  96.598 123.462  1.00  0.00     0.011 A 
ATOM      8  C   UNL     1     114.729  95.915 122.635  1.00  0.00     0.051 A 
ATOM      9  C   UNL     1     112.958  97.029 123.549  1.00  0.00     0.131 A 
ATOM     10  C   UNL     1     115.034  97.506 124.334  1.00  0.00     0.120 A 
ENDROOT
BRANCH   1  11
ATOM     11  C   UNL     1     118.839  95.316 121.932  1.00  0.00     0.230 C 
ATOM     12  O   UNL     1     119.417  94.266 121.639  1.00  0.00    -0.274 OA
BRANCH  11  13
ATOM     13  C   UNL     1     119.549  96.628 121.745  1.00  0.00     0.134 C 
ATOM     14  O   UNL     1     120.457  96.678 119.587  1.00  0.00    -0.458 OA
ATOM     15  C   UNL     1     119.373  97.241 120.354  1.00  0.00     0.124 C 
ATOM     16  C   UNL     1     121.464  96.264 120.413  1.00  0.00     0.307 C 
ATOM     17  C   UNL     1     118.042  96.895 119.664  1.00  0.00     0.049 C 
ATOM     18  C   UNL     1     119.562  98.776 120.405  1.00  0.00     0.049 C 
ATOM     19  O   UNL     1     122.549  95.856 120.030  1.00  0.00    -0.252 OA
ATOM     20  C   UNL     1     121.047  96.403 121.847  1.00  0.00     0.140 C 
ATOM     21  C   UNL     1     117.894  97.566 118.297  1.00  0.00     0.004 C 
ATOM     22  C   UNL     1     119.413  99.432 119.032  1.00  0.00     0.004 C 
ATOM     23  C   UNL     1     118.082  99.076 118.384  1.00  0.00     0.000 C 
ENDBRANCH  11  13
ENDBRANCH   1  11
BRANCH   9  24
ATOM     24  C   UNL     1     111.462  97.271 123.596  1.00  0.00     0.060 C 
ATOM     25  C   UNL     1     110.918  97.821 122.267  1.00  0.00     0.027 C 
ATOM     26  C   UNL     1     111.057  98.200 124.753  1.00  0.00     0.027 C 
ATOM     27  C   UNL     1     109.418  98.096 122.360  1.00  0.00     0.081 C 
ATOM     28  C   UNL     1     109.550  98.461 124.747  1.00  0.00     0.081 C 
ATOM     29  N   UNL     1     109.106  99.004 123.463  1.00  0.00    -0.317 NA
ATOM     30  H   UNL     1     109.576  99.895 123.301  1.00  0.00     0.122 HD
ENDBRANCH   9  24
TORSDOF 3
ENDMDL
MODEL 12
REMARK VINA RESULT:      -6.8      1.456      2.428
REMARK SMILES O=C1C[C@H](C(=O)N2CCc3nc(C4CCNCC4)ncc3C2)C2(CCCCC2)O1
REMARK SMILES IDX 7 1 11 2 19 3 8 4 22 5 9 6 21 7 10 8 12 9 20 10 5 11 6 12
REMARK SMILES IDX 4 13 29 14 23 15 2 16 24 17 28 18 1 19 3 20 25 21 27 22
REMARK SMILES IDX 26 23 13 24 14 25 18 26 15 27 17 28 16 29
REMARK H PARENT 16 30
ROOT
ATOM      1  N   UNL     1     104.281  92.421 114.661  1.00  0.00    -0.337 N 
ATOM      2  N   UNL     1     102.004  92.174 118.201  1.00  0.00    -0.237 NA
ATOM      3  N   UNL     1     103.676  93.390 119.437  1.00  0.00    -0.241 NA
ATOM      4  C   UNL     1     103.380  91.288 114.885  1.00  0.00     0.126 C 
ATOM      5  C   UNL     1     104.863  93.038 115.865  1.00  0.00     0.158 C 
ATOM      6  C   UNL     1     102.246  91.679 115.825  1.00  0.00     0.078 C 
ATOM      7  C   UNL     1     104.008  92.926 117.092  1.00  0.00     0.011 A 
ATOM      8  C   UNL     1     102.781  92.273 117.098  1.00  0.00     0.051 A 
ATOM      9  C   UNL     1     102.504  92.741 119.315  1.00  0.00     0.131 A 
ATOM     10  C   UNL     1     104.404  93.464 118.305  1.00  0.00     0.120 A 
ENDROOT
BRANCH   1  11
ATOM     11  C   UNL     1     104.660  92.753 113.358  1.00  0.00     0.230 C 
ATOM     12  O   UNL     1     105.588  92.217 112.746  1.00  0.00    -0.274 OA
BRANCH  11  13
ATOM     13  C   UNL     1     103.858  93.833 112.687  1.00  0.00     0.134 C 
ATOM     14  O   UNL     1     103.586  95.602 114.197  1.00  0.00    -0.458 OA
ATOM     15  C   UNL     1     104.328  95.253 113.009  1.00  0.00     0.124 C 
ATOM     16  C   UNL     1     102.456  94.842 114.296  1.00  0.00     0.307 C 
ATOM     17  C   UNL     1     105.832  95.379 113.306  1.00  0.00     0.049 C 
ATOM     18  C   UNL     1     103.925  96.232 111.882  1.00  0.00     0.049 C 
ATOM     19  O   UNL     1     101.586  95.003 115.138  1.00  0.00    -0.252 OA
ATOM     20  C   UNL     1     102.436  93.800 113.217  1.00  0.00     0.140 C 
ATOM     21  C   UNL     1     106.261  96.822 113.579  1.00  0.00     0.004 C 
ATOM     22  C   UNL     1     104.358  97.670 112.168  1.00  0.00     0.004 C 
ATOM     23  C   UNL     1     105.852  97.758 112.448  1.00  0.00     0.000 C 
ENDBRANCH  11  13
ENDBRANCH   1  11
BRANCH   9  24
ATOM     24  C   UNL     1     101.655  92.636 120.567  1.00  0.00     0.060 C 
ATOM     25  C   UNL     1     102.282  93.377 121.760  1.00  0.00     0.027 C 
ATOM     26  C   UNL     1     101.360  91.177 120.952  1.00  0.00     0.027 C 
ATOM     27  C   UNL     1     101.427  93.216 123.017  1.00  0.00     0.081 C 
ATOM     28  C   UNL     1     100.541  91.104 122.242  1.00  0.00     0.081 C 
ATOM     29  N   UNL     1     101.207  91.807 123.339  1.00  0.00    -0.317 NA
ATOM     30  H   UNL     1     102.108  91.363 123.517  1.00  0.00     0.122 HD
ENDBRANCH   9  24
TORSDOF 3
ENDMDL
MODEL 13
REMARK VINA RESULT:      -6.7     12.797     15.156
REMARK SMILES O=C1C[C@H](C(=O)N2CCc3nc(C4CCNCC4)ncc3C2)C2(CCCCC2)O1
REMARK SMILES IDX 7 1 11 2 19 3 8 4 22 5 9 6 21 7 10 8 12 9 20 10 5 11 6 12
REMARK SMILES IDX 4 13 29 14 23 15 2 16 24 17 28 18 1 19 3 20 25 21 27 22
REMARK SMILES IDX 26 23 13 24 14 25 18 26 15 27 17 28 16 29
REMARK H PARENT 16 30
ROOT
ATOM      1  N   UNL     1     114.398  96.243 124.095  1.00  0.00    -0.337 N 
ATOM      2  N   UNL     1     118.333  96.296 122.582  1.00  0.00    -0.237 NA
ATOM      3  N   UNL     1     117.744  94.761 120.822  1.00  0.00    -0.241 NA
ATOM      4  C   UNL     1     115.532  96.480 124.991  1.00  0.00     0.126 C 
ATOM      5  C   UNL     1     114.662  95.402 122.916  1.00  0.00     0.158 C 
ATOM      6  C   UNL     1     116.708  97.076 124.225  1.00  0.00     0.078 C 
ATOM      7  C   UNL     1     116.076  95.464 122.418  1.00  0.00     0.011 A 
ATOM      8  C   UNL     1     117.058  96.232 123.031  1.00  0.00     0.051 A 
ATOM      9  C   UNL     1     118.603  95.546 121.497  1.00  0.00     0.131 A 
ATOM     10  C   UNL     1     116.488  94.742 121.309  1.00  0.00     0.120 A 
ENDROOT
BRANCH   1  11
ATOM     11  C   UNL     1     113.124  96.677 124.469  1.00  0.00     0.230 C 
ATOM     12  O   UNL     1     112.317  95.996 125.107  1.00  0.00    -0.274 OA
BRANCH  11  13
ATOM     13  C   UNL     1     112.747  98.072 124.054  1.00  0.00     0.134 C 
ATOM     14  O   UNL     1     112.825  98.197 121.717  1.00  0.00    -0.458 OA
ATOM     15  C   UNL     1     111.873  98.138 122.799  1.00  0.00     0.124 C 
ATOM     16  C   UNL     1     114.028  98.667 122.162  1.00  0.00     0.307 C 
ATOM     17  C   UNL     1     110.958  96.919 122.592  1.00  0.00     0.049 C 
ATOM     18  C   UNL     1     111.038  99.439 122.782  1.00  0.00     0.049 C 
ATOM     19  O   UNL     1     114.978  98.928 121.441  1.00  0.00    -0.252 OA
ATOM     20  C   UNL     1     114.001  98.828 123.653  1.00  0.00     0.140 C 
ATOM     21  C   UNL     1     110.073  97.050 121.350  1.00  0.00     0.004 C 
ATOM     22  C   UNL     1     110.160  99.558 121.535  1.00  0.00     0.004 C 
ATOM     23  C   UNL     1     109.262  98.340 121.367  1.00  0.00     0.000 C 
ENDBRANCH  11  13
ENDBRANCH   1  11
BRANCH   9  24
ATOM     24  C   UNL     1     120.027  95.594 120.978  1.00  0.00     0.060 C 
ATOM     25  C   UNL     1     121.020  96.080 122.047  1.00  0.00     0.027 C 
ATOM     26  C   UNL     1     120.158  96.456 119.711  1.00  0.00     0.027 C 
ATOM     27  C   UNL     1     122.438  96.160 121.483  1.00  0.00     0.081 C 
ATOM     28  C   UNL     1     121.611  96.521 119.239  1.00  0.00     0.081 C 
ATOM     29  N   UNL     1     122.495  97.013 120.296  1.00  0.00    -0.317 NA
ATOM     30  H   UNL     1     122.209  97.958 120.553  1.00  0.00     0.122 HD
ENDBRANCH   9  24
TORSDOF 3
ENDMDL
MODEL 14
REMARK VINA RESULT:      -6.7      2.376      3.815
REMARK SMILES O=C1C[C@H](C(=O)N2CCc3nc(C4CCNCC4)ncc3C2)C2(CCCCC2)O1
REMARK SMILES IDX 7 1 11 2 19 3 8 4 22 5 9 6 21 7 10 8 12 9 20 10 5 11 6 12
REMARK SMILES IDX 4 13 29 14 23 15 2 16 24 17 28 18 1 19 3 20 25 21 27 22
REMARK SMILES IDX 26 23 13 24 14 25 18 26 15 27 17 28 16 29
REMARK H PARENT 16 30
ROOT
ATOM      1  N   UNL     1     104.684  96.748 115.359  1.00  0.00    -0.337 N 
ATOM      2  N   UNL     1     103.794  95.866 119.385  1.00  0.00    -0.237 NA
ATOM      3  N   UNL     1     101.449  95.638 118.883  1.00  0.00    -0.241 NA
ATOM      4  C   UNL     1     105.512  97.293 116.438  1.00  0.00     0.126 C 
ATOM      5  C   UNL     1     103.268  96.505 115.684  1.00  0.00     0.158 C 
ATOM      6  C   UNL     1     105.445  96.401 117.672  1.00  0.00     0.078 C 
ATOM      7  C   UNL     1     103.011  96.190 117.128  1.00  0.00     0.011 A 
ATOM      8  C   UNL     1     104.020  96.154 118.083  1.00  0.00     0.051 A 
ATOM      9  C   UNL     1     102.509  95.626 119.710  1.00  0.00     0.131 A 
ATOM     10  C   UNL     1     101.735  95.924 117.597  1.00  0.00     0.120 A 
ENDROOT
BRANCH   1  11
ATOM     11  C   UNL     1     105.215  96.637 114.072  1.00  0.00     0.230 C 
ATOM     12  O   UNL     1     106.135  97.335 113.637  1.00  0.00    -0.274 OA
BRANCH  11  13
ATOM     13  C   UNL     1     104.606  95.583 113.189  1.00  0.00     0.134 C 
ATOM     14  O   UNL     1     106.330  94.269 112.304  1.00  0.00    -0.458 OA
ATOM     15  C   UNL     1     105.281  94.213 113.292  1.00  0.00     0.124 C 
ATOM     16  C   UNL     1     106.046  95.211 111.356  1.00  0.00     0.307 C 
ATOM     17  C   UNL     1     105.904  93.908 114.664  1.00  0.00     0.049 C 
ATOM     18  C   UNL     1     104.298  93.088 112.891  1.00  0.00     0.049 C 
ATOM     19  O   UNL     1     106.702  95.392 110.342  1.00  0.00    -0.252 OA
ATOM     20  C   UNL     1     104.810  95.972 111.736  1.00  0.00     0.140 C 
ATOM     21  C   UNL     1     106.527  92.512 114.731  1.00  0.00     0.004 C 
ATOM     22  C   UNL     1     104.935  91.699 112.961  1.00  0.00     0.004 C 
ATOM     23  C   UNL     1     105.533  91.428 114.335  1.00  0.00     0.000 C 
ENDBRANCH  11  13
ENDBRANCH   1  11
BRANCH   9  24
ATOM     24  C   UNL     1     102.228  95.308 121.166  1.00  0.00     0.060 C 
ATOM     25  C   UNL     1     103.336  95.823 122.100  1.00  0.00     0.027 C 
ATOM     26  C   UNL     1     102.000  93.805 121.402  1.00  0.00     0.027 C 
ATOM     27  C   UNL     1     103.047  95.448 123.553  1.00  0.00     0.081 C 
ATOM     28  C   UNL     1     101.764  93.511 122.883  1.00  0.00     0.081 C 
ATOM     29  N   UNL     1     102.866  94.006 123.709  1.00  0.00    -0.317 NA
ATOM     30  H   UNL     1     103.726  93.532 123.431  1.00  0.00     0.122 HD
ENDBRANCH   9  24
TORSDOF 3
ENDMDL
MODEL 15
REMARK VINA RESULT:      -6.7     13.030     15.578
REMARK SMILES O=C1C[C@H](C(=O)N2CCc3nc(C4CCNCC4)ncc3C2)C2(CCCCC2)O1
REMARK SMILES IDX 7 1 11 2 19 3 8 4 22 5 9 6 21 7 10 8 12 9 20 10 5 11 6 12
REMARK SMILES IDX 4 13 29 14 23 15 2 16 24 17 28 18 1 19 3 20 25 21 27 22
REMARK SMILES IDX 26 23 13 24 14 25 18 26 15 27 17 28 16 29
REMARK H PARENT 16 30
ROOT
ATOM      1  N   UNL     1     114.659  98.223 124.147  1.00  0.00    -0.337 N 
ATOM      2  N   UNL     1     118.383  98.282 122.170  1.00  0.00    -0.237 NA
ATOM      3  N   UNL     1     118.429  95.877 122.053  1.00  0.00    -0.241 NA
ATOM      4  C   UNL     1     115.607  99.314 124.385  1.00  0.00     0.126 C 
ATOM      5  C   UNL     1     115.243  96.917 123.801  1.00  0.00     0.158 C 
ATOM      6  C   UNL     1     116.529  99.499 123.185  1.00  0.00     0.078 C 
ATOM      7  C   UNL     1     116.563  96.998 123.094  1.00  0.00     0.011 A 
ATOM      8  C   UNL     1     117.194  98.204 122.812  1.00  0.00     0.051 A 
ATOM      9  C   UNL     1     118.936  97.103 121.829  1.00  0.00     0.131 A 
ATOM     10  C   UNL     1     117.241  95.860 122.688  1.00  0.00     0.120 A 
ENDROOT
BRANCH   1  11
ATOM     11  C   UNL     1     113.301  98.423 124.405  1.00  0.00     0.230 C 
ATOM     12  O   UNL     1     112.824  99.471 124.849  1.00  0.00    -0.274 OA
BRANCH  11  13
ATOM     13  C   UNL     1     112.389  97.265 124.107  1.00  0.00     0.134 C 
ATOM     14  O   UNL     1     110.469  98.087 123.047  1.00  0.00    -0.458 OA
ATOM     15  C   UNL     1     111.680  97.360 122.754  1.00  0.00     0.124 C 
ATOM     16  C   UNL     1     110.154  97.978 124.372  1.00  0.00     0.307 C 
ATOM     17  C   UNL     1     112.466  98.117 121.670  1.00  0.00     0.049 C 
ATOM     18  C   UNL     1     111.288  95.953 122.242  1.00  0.00     0.049 C 
ATOM     19  O   UNL     1     109.122  98.396 124.874  1.00  0.00    -0.252 OA
ATOM     20  C   UNL     1     111.247  97.260 125.107  1.00  0.00     0.140 C 
ATOM     21  C   UNL     1     111.737  98.147 120.325  1.00  0.00     0.004 C 
ATOM     22  C   UNL     1     110.560  95.999 120.898  1.00  0.00     0.004 C 
ATOM     23  C   UNL     1     111.370  96.747 119.849  1.00  0.00     0.000 C 
ENDBRANCH  11  13
ENDBRANCH   1  11
BRANCH   9  24
ATOM     24  C   UNL     1     120.272  97.163 121.116  1.00  0.00     0.060 C 
ATOM     25  C   UNL     1     120.179  96.670 119.662  1.00  0.00     0.027 C 
ATOM     26  C   UNL     1     121.369  96.388 121.864  1.00  0.00     0.027 C 
ATOM     27  C   UNL     1     121.549  96.702 118.984  1.00  0.00     0.081 C 
ATOM     28  C   UNL     1     122.692  96.430 121.097  1.00  0.00     0.081 C 
ATOM     29  N   UNL     1     122.536  95.925 119.733  1.00  0.00    -0.317 NA
ATOM     30  H   UNL     1     122.232  94.952 119.773  1.00  0.00     0.122 HD
ENDBRANCH   9  24
TORSDOF 3
ENDMDL
