MODEL 1
REMARK VINA RESULT:     -11.4      0.000      0.000
REMARK SMILES Cc1cccc2ncc(-c3ccc(OC4CCN(C(=O)[C@@H]5CCCO5)CC4)cc3)cc12
REMARK SMILES IDX 13 1 12 2 28 3 10 4 11 5 29 6 14 7 15 8 19 9 20 10 18 11
REMARK SMILES IDX 17 12 26 13 16 14 27 15 21 16 25 17 24 18 22 19 23 20 9 21
REMARK SMILES IDX 30 22 8 23 31 24 7 25 6 26 2 27 5 28 3 29 4 30 1 31
REMARK H PARENT
ROOT
ATOM      1  C   UNL     1     110.710 115.423  78.970  1.00  0.00     0.119 A 
ATOM      2  C   UNL     1     111.017 114.402  79.871  1.00  0.00     0.047 A 
ATOM      3  C   UNL     1     111.732 116.070  78.276  1.00  0.00     0.047 A 
ATOM      4  C   UNL     1     113.367 114.678  79.382  1.00  0.00    -0.017 A 
ATOM      5  C   UNL     1     112.345 114.031  80.077  1.00  0.00     0.012 A 
ATOM      6  C   UNL     1     113.061 115.698  78.481  1.00  0.00     0.012 A 
ENDROOT
BRANCH   1   7
ATOM      7  O   UNL     1     109.406 115.788  78.767  1.00  0.00    -0.490 OA
BRANCH   7   8
ATOM      8  C   UNL     1     108.817 115.397  77.532  1.00  0.00     0.176 C 
ATOM      9  C   UNL     1     109.602 113.057  74.119  1.00  0.00     0.251 C 
ATOM     10  O   UNL     1     110.325 113.484  73.215  1.00  0.00    -0.272 OA
ATOM     11  N   UNL     1     109.004 113.861  75.089  1.00  0.00    -0.340 N 
ATOM     12  C   UNL     1     109.180 115.315  75.040  1.00  0.00     0.123 C 
ATOM     13  C   UNL     1     108.139 113.382  76.175  1.00  0.00     0.123 C 
ATOM     14  C   UNL     1     109.706 115.845  76.370  1.00  0.00     0.067 C 
ATOM     15  C   UNL     1     108.644 113.878  77.526  1.00  0.00     0.067 C 
BRANCH   9  16
ATOM     16  C   UNL     1     109.335 111.587  74.209  1.00  0.00     0.207 C 
ATOM     17  O   UNL     1     108.248 111.319  73.318  1.00  0.00    -0.368 OA
ATOM     18  C   UNL     1     108.719 110.464  72.267  1.00  0.00     0.161 C 
ATOM     19  C   UNL     1     110.516 110.753  73.750  1.00  0.00     0.044 C 
ATOM     20  C   UNL     1     110.228 110.558  72.281  1.00  0.00     0.032 C 
ENDBRANCH   9  16
ENDBRANCH   7   8
ENDBRANCH   1   7
BRANCH   4  21
ATOM     21  C   UNL     1     114.745 114.291  79.595  1.00  0.00     0.001 A 
ATOM     22  C   UNL     1     115.500 114.845  80.618  1.00  0.00     0.021 A 
ATOM     23  C   UNL     1     115.356 113.355  78.785  1.00  0.00     0.120 A 
ATOM     24  C   UNL     1     116.833 114.455  80.801  1.00  0.00     0.004 A 
ATOM     25  N   UNL     1     116.639 112.951  78.928  1.00  0.00    -0.256 NA
ATOM     26  C   UNL     1     117.370 113.491  79.922  1.00  0.00     0.070 A 
ATOM     27  C   UNL     1     117.625 114.998  81.827  1.00  0.00    -0.042 A 
ATOM     28  C   UNL     1     118.694 113.104  80.105  1.00  0.00     0.029 A 
ATOM     29  C   UNL     1     118.947 114.592  81.987  1.00  0.00     0.004 A 
ATOM     30  C   UNL     1     119.481 113.644  81.124  1.00  0.00     0.003 A 
ATOM     31  C   UNL     1     117.096 116.022  82.784  1.00  0.00     0.045 C 
ENDBRANCH   4  21
TORSDOF 4
ENDMDL
MODEL 2
REMARK VINA RESULT:     -11.4      0.594      1.112
REMARK SMILES Cc1cccc2ncc(-c3ccc(OC4CCN(C(=O)[C@@H]5CCCO5)CC4)cc3)cc12
REMARK SMILES IDX 13 1 12 2 28 3 10 4 11 5 29 6 14 7 15 8 19 9 20 10 18 11
REMARK SMILES IDX 17 12 26 13 16 14 27 15 21 16 25 17 24 18 22 19 23 20 9 21
REMARK SMILES IDX 30 22 8 23 31 24 7 25 6 26 2 27 5 28 3 29 4 30 1 31
REMARK H PARENT
ROOT
ATOM      1  C   UNL     1     110.701 115.346  78.815  1.00  0.00     0.119 A 
ATOM      2  C   UNL     1     111.735 116.040  78.185  1.00  0.00     0.047 A 
ATOM      3  C   UNL     1     110.996 114.300  79.690  1.00  0.00     0.047 A 
ATOM      4  C   UNL     1     113.356 114.641  79.305  1.00  0.00    -0.017 A 
ATOM      5  C   UNL     1     113.062 115.687  78.430  1.00  0.00     0.012 A 
ATOM      6  C   UNL     1     112.323 113.947  79.935  1.00  0.00     0.012 A 
ENDROOT
BRANCH   1   7
ATOM      7  O   UNL     1     109.398 115.692  78.575  1.00  0.00    -0.490 OA
BRANCH   7   8
ATOM      8  C   UNL     1     108.819 115.212  77.367  1.00  0.00     0.176 C 
ATOM      9  C   UNL     1     109.761 112.912  73.968  1.00  0.00     0.251 C 
ATOM     10  O   UNL     1     110.400 113.401  73.033  1.00  0.00    -0.272 OA
ATOM     11  N   UNL     1     109.105 113.660  74.944  1.00  0.00    -0.340 N 
ATOM     12  C   UNL     1     109.110 115.123  74.866  1.00  0.00     0.123 C 
ATOM     13  C   UNL     1     108.337 113.106  76.067  1.00  0.00     0.123 C 
ATOM     14  C   UNL     1     109.613 115.736  76.169  1.00  0.00     0.067 C 
ATOM     15  C   UNL     1     108.824 113.684  77.392  1.00  0.00     0.067 C 
BRANCH   9  16
ATOM     16  C   UNL     1     109.669 111.422  74.090  1.00  0.00     0.207 C 
ATOM     17  O   UNL     1     109.736 110.903  72.759  1.00  0.00    -0.368 OA
ATOM     18  C   UNL     1     110.933 110.122  72.632  1.00  0.00     0.161 C 
ATOM     19  C   UNL     1     110.829 110.831  74.868  1.00  0.00     0.044 C 
ATOM     20  C   UNL     1     111.830 110.524  73.781  1.00  0.00     0.032 C 
ENDBRANCH   9  16
ENDBRANCH   7   8
ENDBRANCH   1   7
BRANCH   4  21
ATOM     21  C   UNL     1     114.733 114.277  79.560  1.00  0.00     0.001 A 
ATOM     22  C   UNL     1     115.453 114.861  80.592  1.00  0.00     0.021 A 
ATOM     23  C   UNL     1     115.379 113.336  78.784  1.00  0.00     0.120 A 
ATOM     24  C   UNL     1     116.786 114.494  80.818  1.00  0.00     0.004 A 
ATOM     25  N   UNL     1     116.663 112.953  78.968  1.00  0.00    -0.256 NA
ATOM     26  C   UNL     1     117.360 113.522  79.971  1.00  0.00     0.070 A 
ATOM     27  C   UNL     1     117.542 115.066  81.854  1.00  0.00    -0.042 A 
ATOM     28  C   UNL     1     118.684 113.158  80.195  1.00  0.00     0.029 A 
ATOM     29  C   UNL     1     118.865 114.683  82.056  1.00  0.00     0.004 A 
ATOM     30  C   UNL     1     119.436 113.727  81.225  1.00  0.00     0.003 A 
ATOM     31  C   UNL     1     116.974 116.100  82.778  1.00  0.00     0.045 C 
ENDBRANCH   4  21
TORSDOF 4
ENDMDL
MODEL 3
REMARK VINA RESULT:     -10.4      1.566      1.846
REMARK SMILES Cc1cccc2ncc(-c3ccc(OC4CCN(C(=O)[C@@H]5CCCO5)CC4)cc3)cc12
REMARK SMILES IDX 13 1 12 2 28 3 10 4 11 5 29 6 14 7 15 8 19 9 20 10 18 11
REMARK SMILES IDX 17 12 26 13 16 14 27 15 21 16 25 17 24 18 22 19 23 20 9 21
REMARK SMILES IDX 30 22 8 23 31 24 7 25 6 26 2 27 5 28 3 29 4 30 1 31
REMARK H PARENT
ROOT
ATOM      1  C   UNL     1     110.253 113.738  78.961  1.00  0.00     0.119 A 
ATOM      2  C   UNL     1     110.852 112.719  79.702  1.00  0.00     0.047 A 
ATOM      3  C   UNL     1     111.034 114.759  78.420  1.00  0.00     0.047 A 
ATOM      4  C   UNL     1     113.014 113.744  79.362  1.00  0.00    -0.017 A 
ATOM      5  C   UNL     1     112.232 112.723  79.903  1.00  0.00     0.012 A 
ATOM      6  C   UNL     1     112.415 114.762  78.620  1.00  0.00     0.012 A 
ENDROOT
BRANCH   1   7
ATOM      7  O   UNL     1     108.897 113.735  78.763  1.00  0.00    -0.490 OA
BRANCH   7   8
ATOM      8  C   UNL     1     108.376 112.712  77.921  1.00  0.00     0.176 C 
ATOM      9  C   UNL     1     107.883 111.749  73.851  1.00  0.00     0.251 C 
ATOM     10  O   UNL     1     106.966 112.246  73.193  1.00  0.00    -0.272 OA
ATOM     11  N   UNL     1     107.918 111.718  75.245  1.00  0.00    -0.340 N 
ATOM     12  C   UNL     1     106.793 112.257  76.014  1.00  0.00     0.123 C 
ATOM     13  C   UNL     1     108.995 111.133  76.056  1.00  0.00     0.123 C 
ATOM     14  C   UNL     1     107.273 113.288  77.030  1.00  0.00     0.067 C 
ATOM     15  C   UNL     1     109.513 112.142  77.074  1.00  0.00     0.067 C 
BRANCH   9  16
ATOM     16  C   UNL     1     109.047 111.135  73.137  1.00  0.00     0.207 C 
ATOM     17  O   UNL     1     108.573 110.760  71.840  1.00  0.00    -0.368 OA
ATOM     18  C   UNL     1     109.271 111.537  70.857  1.00  0.00     0.161 C 
ATOM     19  C   UNL     1     110.189 112.113  72.940  1.00  0.00     0.044 C 
ATOM     20  C   UNL     1     109.876 112.713  71.590  1.00  0.00     0.032 C 
ENDBRANCH   9  16
ENDBRANCH   7   8
ENDBRANCH   1   7
BRANCH   4  21
ATOM     21  C   UNL     1     114.446 113.745  79.568  1.00  0.00     0.001 A 
ATOM     22  C   UNL     1     115.030 114.519  80.560  1.00  0.00     0.021 A 
ATOM     23  C   UNL     1     115.282 112.977  78.783  1.00  0.00     0.120 A 
ATOM     24  C   UNL     1     116.420 114.506  80.738  1.00  0.00     0.004 A 
ATOM     25  N   UNL     1     116.626 112.935  78.921  1.00  0.00    -0.256 NA
ATOM     26  C   UNL     1     117.191 113.688  79.886  1.00  0.00     0.070 A 
ATOM     27  C   UNL     1     117.042 115.278  81.733  1.00  0.00    -0.042 A 
ATOM     28  C   UNL     1     118.571 113.675  80.063  1.00  0.00     0.029 A 
ATOM     29  C   UNL     1     118.425 115.245  81.888  1.00  0.00     0.004 A 
ATOM     30  C   UNL     1     119.190 114.442  81.051  1.00  0.00     0.003 A 
ATOM     31  C   UNL     1     116.264 116.159  82.661  1.00  0.00     0.045 C 
ENDBRANCH   4  21
TORSDOF 4
ENDMDL
MODEL 4
REMARK VINA RESULT:     -10.3      3.150      4.336
REMARK SMILES Cc1cccc2ncc(-c3ccc(OC4CCN(C(=O)[C@@H]5CCCO5)CC4)cc3)cc12
REMARK SMILES IDX 13 1 12 2 28 3 10 4 11 5 29 6 14 7 15 8 19 9 20 10 18 11
REMARK SMILES IDX 17 12 26 13 16 14 27 15 21 16 25 17 24 18 22 19 23 20 9 21
REMARK SMILES IDX 30 22 8 23 31 24 7 25 6 26 2 27 5 28 3 29 4 30 1 31
REMARK H PARENT
ROOT
ATOM      1  C   UNL     1     111.002 114.271  77.933  1.00  0.00     0.119 A 
ATOM      2  C   UNL     1     111.625 113.023  77.910  1.00  0.00     0.047 A 
ATOM      3  C   UNL     1     111.702 115.391  78.382  1.00  0.00     0.047 A 
ATOM      4  C   UNL     1     113.646 114.015  78.788  1.00  0.00    -0.017 A 
ATOM      5  C   UNL     1     112.946 112.895  78.338  1.00  0.00     0.012 A 
ATOM      6  C   UNL     1     113.024 115.263  78.810  1.00  0.00     0.012 A 
ENDROOT
BRANCH   1   7
ATOM      7  O   UNL     1     109.705 114.398  77.512  1.00  0.00    -0.490 OA
BRANCH   7   8
ATOM      8  C   UNL     1     108.955 113.196  77.379  1.00  0.00     0.176 C 
ATOM      9  C   UNL     1     105.351 111.423  78.645  1.00  0.00     0.251 C 
ATOM     10  O   UNL     1     105.255 110.922  79.768  1.00  0.00    -0.272 OA
ATOM     11  N   UNL     1     106.562 111.701  78.012  1.00  0.00    -0.340 N 
ATOM     12  C   UNL     1     107.824 111.350  78.669  1.00  0.00     0.123 C 
ATOM     13  C   UNL     1     106.706 112.296  76.676  1.00  0.00     0.123 C 
ATOM     14  C   UNL     1     108.747 112.560  78.755  1.00  0.00     0.067 C 
ATOM     15  C   UNL     1     107.612 113.522  76.726  1.00  0.00     0.067 C 
BRANCH   9  16
ATOM     16  C   UNL     1     104.105 111.767  77.889  1.00  0.00     0.207 C 
ATOM     17  O   UNL     1     103.266 110.609  77.945  1.00  0.00    -0.368 OA
ATOM     18  C   UNL     1     102.079 110.940  78.679  1.00  0.00     0.161 C 
ATOM     19  C   UNL     1     103.340 112.914  78.521  1.00  0.00     0.044 C 
ATOM     20  C   UNL     1     102.391 112.200  79.454  1.00  0.00     0.032 C 
ENDBRANCH   9  16
ENDBRANCH   7   8
ENDBRANCH   1   7
BRANCH   4  21
ATOM     21  C   UNL     1     115.017 113.882  79.229  1.00  0.00     0.001 A 
ATOM     22  C   UNL     1     115.490 114.580  80.331  1.00  0.00     0.021 A 
ATOM     23  C   UNL     1     115.903 113.056  78.568  1.00  0.00     0.120 A 
ATOM     24  C   UNL     1     116.824 114.436  80.737  1.00  0.00     0.004 A 
ATOM     25  N   UNL     1     117.197 112.888  78.927  1.00  0.00    -0.256 NA
ATOM     26  C   UNL     1     117.654 113.568  79.997  1.00  0.00     0.070 A 
ATOM     27  C   UNL     1     117.334 115.129  81.847  1.00  0.00    -0.042 A 
ATOM     28  C   UNL     1     118.978 113.425  80.400  1.00  0.00     0.029 A 
ATOM     29  C   UNL     1     118.663 114.967  82.229  1.00  0.00     0.004 A 
ATOM     30  C   UNL     1     119.485 114.114  81.504  1.00  0.00     0.003 A 
ATOM     31  C   UNL     1     116.490 116.059  82.662  1.00  0.00     0.045 C 
ENDBRANCH   4  21
TORSDOF 4
ENDMDL
MODEL 5
REMARK VINA RESULT:     -10.0      3.839     10.185
REMARK SMILES Cc1cccc2ncc(-c3ccc(OC4CCN(C(=O)[C@@H]5CCCO5)CC4)cc3)cc12
REMARK SMILES IDX 13 1 12 2 28 3 10 4 11 5 29 6 14 7 15 8 19 9 20 10 18 11
REMARK SMILES IDX 17 12 26 13 16 14 27 15 21 16 25 17 24 18 22 19 23 20 9 21
REMARK SMILES IDX 30 22 8 23 31 24 7 25 6 26 2 27 5 28 3 29 4 30 1 31
REMARK H PARENT
ROOT
ATOM      1  C   UNL     1     111.134 114.493  78.901  1.00  0.00     0.119 A 
ATOM      2  C   UNL     1     111.173 113.476  77.946  1.00  0.00     0.047 A 
ATOM      3  C   UNL     1     109.949 114.761  79.585  1.00  0.00     0.047 A 
ATOM      4  C   UNL     1     108.840 112.999  78.360  1.00  0.00    -0.017 A 
ATOM      5  C   UNL     1     110.026 112.730  77.676  1.00  0.00     0.012 A 
ATOM      6  C   UNL     1     108.802 114.014  79.316  1.00  0.00     0.012 A 
ENDROOT
BRANCH   1   7
ATOM      7  O   UNL     1     112.260 115.226  79.167  1.00  0.00    -0.490 OA
BRANCH   7   8
ATOM      8  C   UNL     1     113.503 114.656  78.772  1.00  0.00     0.176 C 
ATOM      9  C   UNL     1     117.553 114.507  79.917  1.00  0.00     0.251 C 
ATOM     10  O   UNL     1     118.317 115.438  79.652  1.00  0.00    -0.272 OA
ATOM     11  N   UNL     1     116.326 114.299  79.289  1.00  0.00    -0.340 N 
ATOM     12  C   UNL     1     115.900 115.193  78.208  1.00  0.00     0.123 C 
ATOM     13  C   UNL     1     115.396 113.200  79.582  1.00  0.00     0.123 C 
ATOM     14  C   UNL     1     114.516 115.768  78.492  1.00  0.00     0.067 C 
ATOM     15  C   UNL     1     114.002 113.739  79.888  1.00  0.00     0.067 C 
BRANCH   9  16
ATOM     16  C   UNL     1     117.940 113.523  80.977  1.00  0.00     0.207 C 
ATOM     17  O   UNL     1     118.872 112.623  80.372  1.00  0.00    -0.368 OA
ATOM     18  C   UNL     1     120.140 112.771  81.026  1.00  0.00     0.161 C 
ATOM     19  C   UNL     1     118.637 114.180  82.152  1.00  0.00     0.044 C 
ATOM     20  C   UNL     1     120.093 114.092  81.759  1.00  0.00     0.032 C 
ENDBRANCH   9  16
ENDBRANCH   7   8
ENDBRANCH   1   7
BRANCH   4  21
ATOM     21  C   UNL     1     107.652 112.222  78.081  1.00  0.00     0.001 A 
ATOM     22  C   UNL     1     106.501 112.370  78.841  1.00  0.00     0.021 A 
ATOM     23  C   UNL     1     107.623 111.306  77.049  1.00  0.00     0.120 A 
ATOM     24  C   UNL     1     105.363 111.604  78.553  1.00  0.00     0.004 A 
ATOM     25  N   UNL     1     106.547 110.548  76.738  1.00  0.00    -0.256 NA
ATOM     26  C   UNL     1     105.430 110.693  77.477  1.00  0.00     0.070 A 
ATOM     27  C   UNL     1     104.182 111.729  79.303  1.00  0.00    -0.042 A 
ATOM     28  C   UNL     1     104.300 109.933  77.191  1.00  0.00     0.029 A 
ATOM     29  C   UNL     1     103.066 110.956  78.994  1.00  0.00     0.004 A 
ATOM     30  C   UNL     1     103.126 110.057  77.937  1.00  0.00     0.003 A 
ATOM     31  C   UNL     1     104.065 112.683  80.452  1.00  0.00     0.045 C 
ENDBRANCH   4  21
TORSDOF 4
ENDMDL
MODEL 6
REMARK VINA RESULT:      -9.9      2.102      3.084
REMARK SMILES Cc1cccc2ncc(-c3ccc(OC4CCN(C(=O)[C@@H]5CCCO5)CC4)cc3)cc12
REMARK SMILES IDX 13 1 12 2 28 3 10 4 11 5 29 6 14 7 15 8 19 9 20 10 18 11
REMARK SMILES IDX 17 12 26 13 16 14 27 15 21 16 25 17 24 18 22 19 23 20 9 21
REMARK SMILES IDX 30 22 8 23 31 24 7 25 6 26 2 27 5 28 3 29 4 30 1 31
REMARK H PARENT
ROOT
ATOM      1  C   UNL     1     109.046 112.713  78.975  1.00  0.00     0.119 A 
ATOM      2  C   UNL     1     109.586 113.953  78.632  1.00  0.00     0.047 A 
ATOM      3  C   UNL     1     109.877 111.697  79.447  1.00  0.00     0.047 A 
ATOM      4  C   UNL     1     111.788 113.159  79.231  1.00  0.00    -0.017 A 
ATOM      5  C   UNL     1     110.957 114.175  78.760  1.00  0.00     0.012 A 
ATOM      6  C   UNL     1     111.248 111.919  79.575  1.00  0.00     0.012 A 
ENDROOT
BRANCH   1   7
ATOM      7  O   UNL     1     107.699 112.494  78.850  1.00  0.00    -0.490 OA
BRANCH   7   8
ATOM      8  C   UNL     1     107.275 111.740  77.720  1.00  0.00     0.176 C 
ATOM      9  C   UNL     1     107.613 111.652  73.523  1.00  0.00     0.251 C 
ATOM     10  O   UNL     1     106.927 112.397  72.820  1.00  0.00    -0.272 OA
ATOM     11  N   UNL     1     107.329 111.352  74.855  1.00  0.00    -0.340 N 
ATOM     12  C   UNL     1     106.124 111.899  75.484  1.00  0.00     0.123 C 
ATOM     13  C   UNL     1     108.127 110.469  75.716  1.00  0.00     0.123 C 
ATOM     14  C   UNL     1     106.470 112.634  76.774  1.00  0.00     0.067 C 
ATOM     15  C   UNL     1     108.507 111.177  77.012  1.00  0.00     0.067 C 
BRANCH   9  16
ATOM     16  C   UNL     1     108.836 111.016  72.938  1.00  0.00     0.207 C 
ATOM     17  O   UNL     1     108.637 110.985  71.521  1.00  0.00    -0.368 OA
ATOM     18  C   UNL     1     109.624 111.822  70.903  1.00  0.00     0.161 C 
ATOM     19  C   UNL     1     110.093 111.822  73.204  1.00  0.00     0.044 C 
ATOM     20  C   UNL     1     110.169 112.719  71.992  1.00  0.00     0.032 C 
ENDBRANCH   9  16
ENDBRANCH   7   8
ENDBRANCH   1   7
BRANCH   4  21
ATOM     21  C   UNL     1     113.209 113.391  79.366  1.00  0.00     0.001 A 
ATOM     22  C   UNL     1     113.803 114.538  78.860  1.00  0.00     0.021 A 
ATOM     23  C   UNL     1     114.025 112.478  80.004  1.00  0.00     0.120 A 
ATOM     24  C   UNL     1     115.183 114.739  79.001  1.00  0.00     0.004 A 
ATOM     25  N   UNL     1     115.359 112.633  80.161  1.00  0.00    -0.256 NA
ATOM     26  C   UNL     1     115.933 113.748  79.668  1.00  0.00     0.070 A 
ATOM     27  C   UNL     1     115.815 115.889  78.499  1.00  0.00    -0.042 A 
ATOM     28  C   UNL     1     117.304 113.947  79.808  1.00  0.00     0.029 A 
ATOM     29  C   UNL     1     117.187 116.062  78.653  1.00  0.00     0.004 A 
ATOM     30  C   UNL     1     117.932 115.090  79.309  1.00  0.00     0.003 A 
ATOM     31  C   UNL     1     115.058 116.966  77.785  1.00  0.00     0.045 C 
ENDBRANCH   4  21
TORSDOF 4
ENDMDL
MODEL 7
REMARK VINA RESULT:      -9.7      1.678      2.043
REMARK SMILES Cc1cccc2ncc(-c3ccc(OC4CCN(C(=O)[C@@H]5CCCO5)CC4)cc3)cc12
REMARK SMILES IDX 13 1 12 2 28 3 10 4 11 5 29 6 14 7 15 8 19 9 20 10 18 11
REMARK SMILES IDX 17 12 26 13 16 14 27 15 21 16 25 17 24 18 22 19 23 20 9 21
REMARK SMILES IDX 30 22 8 23 31 24 7 25 6 26 2 27 5 28 3 29 4 30 1 31
REMARK H PARENT
ROOT
ATOM      1  C   UNL     1     111.080 115.824  78.831  1.00  0.00     0.119 A 
ATOM      2  C   UNL     1     111.311 114.873  79.825  1.00  0.00     0.047 A 
ATOM      3  C   UNL     1     112.142 116.301  78.063  1.00  0.00     0.047 A 
ATOM      4  C   UNL     1     113.666 114.878  79.283  1.00  0.00    -0.017 A 
ATOM      5  C   UNL     1     112.603 114.401  80.051  1.00  0.00     0.012 A 
ATOM      6  C   UNL     1     113.435 115.828  78.288  1.00  0.00     0.012 A 
ENDROOT
BRANCH   1   7
ATOM      7  O   UNL     1     109.810 116.287  78.608  1.00  0.00    -0.490 OA
BRANCH   7   8
ATOM      8  C   UNL     1     108.992 115.517  77.734  1.00  0.00     0.176 C 
ATOM      9  C   UNL     1     108.677 111.651  76.094  1.00  0.00     0.251 C 
ATOM     10  O   UNL     1     109.376 111.315  75.136  1.00  0.00    -0.272 OA
ATOM     11  N   UNL     1     108.448 112.975  76.469  1.00  0.00    -0.340 N 
ATOM     12  C   UNL     1     109.017 114.066  75.674  1.00  0.00     0.123 C 
ATOM     13  C   UNL     1     107.620 113.405  77.604  1.00  0.00     0.123 C 
ATOM     14  C   UNL     1     109.825 115.015  76.553  1.00  0.00     0.067 C 
ATOM     15  C   UNL     1     108.402 114.345  78.517  1.00  0.00     0.067 C 
BRANCH   9  16
ATOM     16  C   UNL     1     108.021 110.595  76.928  1.00  0.00     0.207 C 
ATOM     17  O   UNL     1     106.772 111.140  77.363  1.00  0.00    -0.368 OA
ATOM     18  C   UNL     1     105.711 110.365  76.789  1.00  0.00     0.161 C 
ATOM     19  C   UNL     1     107.718 109.336  76.137  1.00  0.00     0.044 C 
ATOM     20  C   UNL     1     106.316 109.594  75.638  1.00  0.00     0.032 C 
ENDBRANCH   9  16
ENDBRANCH   7   8
ENDBRANCH   1   7
BRANCH   4  21
ATOM     21  C   UNL     1     115.006 114.386  79.516  1.00  0.00     0.001 A 
ATOM     22  C   UNL     1     115.776 114.864  80.567  1.00  0.00     0.021 A 
ATOM     23  C   UNL     1     115.566 113.424  78.700  1.00  0.00     0.120 A 
ATOM     24  C   UNL     1     117.073 114.374  80.770  1.00  0.00     0.004 A 
ATOM     25  N   UNL     1     116.812 112.924  78.862  1.00  0.00    -0.256 NA
ATOM     26  C   UNL     1     117.558 113.390  79.883  1.00  0.00     0.070 A 
ATOM     27  C   UNL     1     117.878 114.837  81.824  1.00  0.00    -0.042 A 
ATOM     28  C   UNL     1     118.846 112.903  80.085  1.00  0.00     0.029 A 
ATOM     29  C   UNL     1     119.163 114.332  82.003  1.00  0.00     0.004 A 
ATOM     30  C   UNL     1     119.647 113.364  81.132  1.00  0.00     0.003 A 
ATOM     31  C   UNL     1     117.405 115.879  82.790  1.00  0.00     0.045 C 
ENDBRANCH   4  21
TORSDOF 4
ENDMDL
MODEL 8
REMARK VINA RESULT:      -9.6      1.605      2.619
REMARK SMILES Cc1cccc2ncc(-c3ccc(OC4CCN(C(=O)[C@@H]5CCCO5)CC4)cc3)cc12
REMARK SMILES IDX 13 1 12 2 28 3 10 4 11 5 29 6 14 7 15 8 19 9 20 10 18 11
REMARK SMILES IDX 17 12 26 13 16 14 27 15 21 16 25 17 24 18 22 19 23 20 9 21
REMARK SMILES IDX 30 22 8 23 31 24 7 25 6 26 2 27 5 28 3 29 4 30 1 31
REMARK H PARENT
ROOT
ATOM      1  C   UNL     1     110.670 114.369  78.511  1.00  0.00     0.119 A 
ATOM      2  C   UNL     1     111.533 115.399  78.135  1.00  0.00     0.047 A 
ATOM      3  C   UNL     1     111.107 113.382  79.395  1.00  0.00     0.047 A 
ATOM      4  C   UNL     1     113.268 114.453  79.525  1.00  0.00    -0.017 A 
ATOM      5  C   UNL     1     112.831 115.440  78.642  1.00  0.00     0.012 A 
ATOM      6  C   UNL     1     112.405 113.424  79.903  1.00  0.00     0.012 A 
ENDROOT
BRANCH   1   7
ATOM      7  O   UNL     1     109.394 114.328  78.015  1.00  0.00    -0.490 OA
BRANCH   7   8
ATOM      8  C   UNL     1     109.047 113.190  77.234  1.00  0.00     0.176 C 
ATOM      9  C   UNL     1     108.105 112.090  73.279  1.00  0.00     0.251 C 
ATOM     10  O   UNL     1     106.977 112.287  72.822  1.00  0.00    -0.272 OA
ATOM     11  N   UNL     1     108.408 112.082  74.640  1.00  0.00    -0.340 N 
ATOM     12  C   UNL     1     107.340 112.270  75.625  1.00  0.00     0.123 C 
ATOM     13  C   UNL     1     109.741 111.850  75.213  1.00  0.00     0.123 C 
ATOM     14  C   UNL     1     107.678 113.405  76.586  1.00  0.00     0.067 C 
ATOM     15  C   UNL     1     110.122 112.976  76.168  1.00  0.00     0.067 C 
BRANCH   9  16
ATOM     16  C   UNL     1     109.243 111.843  72.338  1.00  0.00     0.207 C 
ATOM     17  O   UNL     1     108.663 111.374  71.117  1.00  0.00    -0.368 OA
ATOM     18  C   UNL     1     108.929 112.334  70.086  1.00  0.00     0.161 C 
ATOM     19  C   UNL     1     110.017 113.108  72.018  1.00  0.00     0.044 C 
ATOM     20  C   UNL     1     109.311 113.619  70.784  1.00  0.00     0.032 C 
ENDBRANCH   9  16
ENDBRANCH   7   8
ENDBRANCH   1   7
BRANCH   4  21
ATOM     21  C   UNL     1     114.614 114.499  80.053  1.00  0.00     0.001 A 
ATOM     22  C   UNL     1     115.631 113.734  79.499  1.00  0.00     0.021 A 
ATOM     23  C   UNL     1     114.934 115.304  81.127  1.00  0.00     0.120 A 
ATOM     24  C   UNL     1     116.926 113.793  80.030  1.00  0.00     0.004 A 
ATOM     25  N   UNL     1     116.170 115.390  81.668  1.00  0.00    -0.256 NA
ATOM     26  C   UNL     1     117.156 114.646  81.129  1.00  0.00     0.070 A 
ATOM     27  C   UNL     1     117.977 113.031  79.492  1.00  0.00    -0.042 A 
ATOM     28  C   UNL     1     118.442 114.705  81.656  1.00  0.00     0.029 A 
ATOM     29  C   UNL     1     119.255 113.109  80.039  1.00  0.00     0.004 A 
ATOM     30  C   UNL     1     119.487 113.948  81.122  1.00  0.00     0.003 A 
ATOM     31  C   UNL     1     117.780 112.113  78.326  1.00  0.00     0.045 C 
ENDBRANCH   4  21
TORSDOF 4
ENDMDL
MODEL 9
REMARK VINA RESULT:      -9.5      2.749      9.259
REMARK SMILES Cc1cccc2ncc(-c3ccc(OC4CCN(C(=O)[C@@H]5CCCO5)CC4)cc3)cc12
REMARK SMILES IDX 13 1 12 2 28 3 10 4 11 5 29 6 14 7 15 8 19 9 20 10 18 11
REMARK SMILES IDX 17 12 26 13 16 14 27 15 21 16 25 17 24 18 22 19 23 20 9 21
REMARK SMILES IDX 30 22 8 23 31 24 7 25 6 26 2 27 5 28 3 29 4 30 1 31
REMARK H PARENT
ROOT
ATOM      1  C   UNL     1     109.048 114.816  78.212  1.00  0.00     0.119 A 
ATOM      2  C   UNL     1     108.440 113.569  78.362  1.00  0.00     0.047 A 
ATOM      3  C   UNL     1     109.348 115.296  76.937  1.00  0.00     0.047 A 
ATOM      4  C   UNL     1     108.436 113.282  75.963  1.00  0.00    -0.017 A 
ATOM      5  C   UNL     1     108.135 112.802  77.238  1.00  0.00     0.012 A 
ATOM      6  C   UNL     1     109.042 114.530  75.812  1.00  0.00     0.012 A 
ENDROOT
BRANCH   1   7
ATOM      7  O   UNL     1     109.347 115.569  79.316  1.00  0.00    -0.490 OA
BRANCH   7   8
ATOM      8  C   UNL     1     110.699 115.546  79.760  1.00  0.00     0.176 C 
ATOM      9  C   UNL     1     114.275 113.376  79.269  1.00  0.00     0.251 C 
ATOM     10  O   UNL     1     114.450 112.309  79.861  1.00  0.00    -0.272 OA
ATOM     11  N   UNL     1     113.315 114.322  79.629  1.00  0.00    -0.340 N 
ATOM     12  C   UNL     1     112.473 114.094  80.806  1.00  0.00     0.123 C 
ATOM     13  C   UNL     1     113.084 115.602  78.944  1.00  0.00     0.123 C 
ATOM     14  C   UNL     1     110.995 114.212  80.448  1.00  0.00     0.067 C 
ATOM     15  C   UNL     1     111.617 115.749  78.555  1.00  0.00     0.067 C 
BRANCH   9  16
ATOM     16  C   UNL     1     115.129 113.705  78.084  1.00  0.00     0.207 C 
ATOM     17  O   UNL     1     115.903 114.851  78.449  1.00  0.00    -0.368 OA
ATOM     18  C   UNL     1     117.289 114.479  78.469  1.00  0.00     0.161 C 
ATOM     19  C   UNL     1     116.099 112.590  77.741  1.00  0.00     0.044 C 
ATOM     20  C   UNL     1     117.327 112.969  78.535  1.00  0.00     0.032 C 
ENDBRANCH   9  16
ENDBRANCH   7   8
ENDBRANCH   1   7
BRANCH   4  21
ATOM     21  C   UNL     1     108.117 112.488  74.797  1.00  0.00     0.001 A 
ATOM     22  C   UNL     1     108.562 112.851  73.534  1.00  0.00     0.021 A 
ATOM     23  C   UNL     1     107.356 111.341  74.900  1.00  0.00     0.120 A 
ATOM     24  C   UNL     1     108.237 112.067  72.419  1.00  0.00     0.004 A 
ATOM     25  N   UNL     1     107.021 110.556  73.851  1.00  0.00    -0.256 NA
ATOM     26  C   UNL     1     107.454 110.911  72.626  1.00  0.00     0.070 A 
ATOM     27  C   UNL     1     108.672 112.407  71.128  1.00  0.00    -0.042 A 
ATOM     28  C   UNL     1     107.132 110.132  71.518  1.00  0.00     0.029 A 
ATOM     29  C   UNL     1     108.335 111.609  70.038  1.00  0.00     0.004 A 
ATOM     30  C   UNL     1     107.564 110.470  70.234  1.00  0.00     0.003 A 
ATOM     31  C   UNL     1     109.506 113.622  70.862  1.00  0.00     0.045 C 
ENDBRANCH   4  21
TORSDOF 4
ENDMDL
MODEL 10
REMARK VINA RESULT:      -9.4      2.119      3.157
REMARK SMILES Cc1cccc2ncc(-c3ccc(OC4CCN(C(=O)[C@@H]5CCCO5)CC4)cc3)cc12
REMARK SMILES IDX 13 1 12 2 28 3 10 4 11 5 29 6 14 7 15 8 19 9 20 10 18 11
REMARK SMILES IDX 17 12 26 13 16 14 27 15 21 16 25 17 24 18 22 19 23 20 9 21
REMARK SMILES IDX 30 22 8 23 31 24 7 25 6 26 2 27 5 28 3 29 4 30 1 31
REMARK H PARENT
ROOT
ATOM      1  C   UNL     1     108.881 113.028  78.970  1.00  0.00     0.119 A 
ATOM      2  C   UNL     1     109.077 114.326  78.499  1.00  0.00     0.047 A 
ATOM      3  C   UNL     1     109.973 112.266  79.387  1.00  0.00     0.047 A 
ATOM      4  C   UNL     1     111.455 114.100  78.862  1.00  0.00    -0.017 A 
ATOM      5  C   UNL     1     110.363 114.862  78.445  1.00  0.00     0.012 A 
ATOM      6  C   UNL     1     111.260 112.802  79.334  1.00  0.00     0.012 A 
ENDROOT
BRANCH   1   7
ATOM      7  O   UNL     1     107.618 112.502  79.024  1.00  0.00    -0.490 OA
BRANCH   7   8
ATOM      8  C   UNL     1     107.193 111.739  77.900  1.00  0.00     0.176 C 
ATOM      9  C   UNL     1     107.589 111.574  73.710  1.00  0.00     0.251 C 
ATOM     10  O   UNL     1     106.929 112.322  72.985  1.00  0.00    -0.272 OA
ATOM     11  N   UNL     1     107.279 111.302  75.042  1.00  0.00    -0.340 N 
ATOM     12  C   UNL     1     106.078 111.885  75.645  1.00  0.00     0.123 C 
ATOM     13  C   UNL     1     108.046 110.416  75.929  1.00  0.00     0.123 C 
ATOM     14  C   UNL     1     106.421 112.634  76.928  1.00  0.00     0.067 C 
ATOM     15  C   UNL     1     108.422 111.137  77.219  1.00  0.00     0.067 C 
BRANCH   9  16
ATOM     16  C   UNL     1     108.805 110.902  73.153  1.00  0.00     0.207 C 
ATOM     17  O   UNL     1     108.639 110.878  71.733  1.00  0.00    -0.368 OA
ATOM     18  C   UNL     1     109.665 111.685  71.139  1.00  0.00     0.161 C 
ATOM     19  C   UNL     1     110.079 111.670  73.450  1.00  0.00     0.044 C 
ATOM     20  C   UNL     1     110.211 112.565  72.240  1.00  0.00     0.032 C 
ENDBRANCH   9  16
ENDBRANCH   7   8
ENDBRANCH   1   7
BRANCH   4  21
ATOM     21  C   UNL     1     112.789 114.657  78.809  1.00  0.00     0.001 A 
ATOM     22  C   UNL     1     113.879 113.966  79.318  1.00  0.00     0.021 A 
ATOM     23  C   UNL     1     113.024 115.896  78.249  1.00  0.00     0.120 A 
ATOM     24  C   UNL     1     115.161 114.528  79.257  1.00  0.00     0.004 A 
ATOM     25  N   UNL     1     114.244 116.474  78.170  1.00  0.00    -0.256 NA
ATOM     26  C   UNL     1     115.301 115.801  78.666  1.00  0.00     0.070 A 
ATOM     27  C   UNL     1     116.285 113.855  79.764  1.00  0.00    -0.042 A 
ATOM     28  C   UNL     1     116.574 116.359  78.605  1.00  0.00     0.029 A 
ATOM     29  C   UNL     1     117.547 114.437  79.690  1.00  0.00     0.004 A 
ATOM     30  C   UNL     1     117.691 115.690  79.109  1.00  0.00     0.003 A 
ATOM     31  C   UNL     1     116.184 112.502  80.399  1.00  0.00     0.045 C 
ENDBRANCH   4  21
TORSDOF 4
ENDMDL
MODEL 11
REMARK VINA RESULT:      -9.4      1.334      2.308
REMARK SMILES Cc1cccc2ncc(-c3ccc(OC4CCN(C(=O)[C@@H]5CCCO5)CC4)cc3)cc12
REMARK SMILES IDX 13 1 12 2 28 3 10 4 11 5 29 6 14 7 15 8 19 9 20 10 18 11
REMARK SMILES IDX 17 12 26 13 16 14 27 15 21 16 25 17 24 18 22 19 23 20 9 21
REMARK SMILES IDX 30 22 8 23 31 24 7 25 6 26 2 27 5 28 3 29 4 30 1 31
REMARK H PARENT
ROOT
ATOM      1  C   UNL     1     110.442 115.097  78.916  1.00  0.00     0.119 A 
ATOM      2  C   UNL     1     111.447 115.753  78.204  1.00  0.00     0.047 A 
ATOM      3  C   UNL     1     110.771 114.304  80.016  1.00  0.00     0.047 A 
ATOM      4  C   UNL     1     113.109 114.822  79.691  1.00  0.00    -0.017 A 
ATOM      5  C   UNL     1     112.779 115.615  78.591  1.00  0.00     0.012 A 
ATOM      6  C   UNL     1     112.104 114.167  80.404  1.00  0.00     0.012 A 
ENDROOT
BRANCH   1   7
ATOM      7  O   UNL     1     109.133 115.232  78.537  1.00  0.00    -0.490 OA
BRANCH   7   8
ATOM      8  C   UNL     1     108.751 114.605  77.317  1.00  0.00     0.176 C 
ATOM      9  C   UNL     1     110.349 112.303  74.174  1.00  0.00     0.251 C 
ATOM     10  O   UNL     1     110.994 112.835  73.268  1.00  0.00    -0.272 OA
ATOM     11  N   UNL     1     109.497 112.991  75.037  1.00  0.00    -0.340 N 
ATOM     12  C   UNL     1     109.291 114.431  74.862  1.00  0.00     0.123 C 
ATOM     13  C   UNL     1     108.717 112.384  76.124  1.00  0.00     0.123 C 
ATOM     14  C   UNL     1     109.569 115.182  76.160  1.00  0.00     0.067 C 
ATOM     15  C   UNL     1     108.982 113.099  77.445  1.00  0.00     0.067 C 
BRANCH   9  16
ATOM     16  C   UNL     1     110.470 110.826  74.387  1.00  0.00     0.207 C 
ATOM     17  O   UNL     1     110.976 110.281  73.164  1.00  0.00    -0.368 OA
ATOM     18  C   UNL     1     112.272 109.721  73.415  1.00  0.00     0.161 C 
ATOM     19  C   UNL     1     111.457 110.476  75.484  1.00  0.00     0.044 C 
ATOM     20  C   UNL     1     112.750 110.315  74.721  1.00  0.00     0.032 C 
ENDBRANCH   9  16
ENDBRANCH   7   8
ENDBRANCH   1   7
BRANCH   4  21
ATOM     21  C   UNL     1     114.491 114.682  80.093  1.00  0.00     0.001 A 
ATOM     22  C   UNL     1     115.374 113.889  79.374  1.00  0.00     0.021 A 
ATOM     23  C   UNL     1     114.980 115.331  81.209  1.00  0.00     0.120 A 
ATOM     24  C   UNL     1     116.707 113.766  79.787  1.00  0.00     0.004 A 
ATOM     25  N   UNL     1     116.258 115.241  81.640  1.00  0.00    -0.256 NA
ATOM     26  C   UNL     1     117.113 114.470  80.940  1.00  0.00     0.070 A 
ATOM     27  C   UNL     1     117.626 112.971  79.081  1.00  0.00    -0.042 A 
ATOM     28  C   UNL     1     118.438 114.348  81.349  1.00  0.00     0.029 A 
ATOM     29  C   UNL     1     118.945 112.868  79.513  1.00  0.00     0.004 A 
ATOM     30  C   UNL     1     119.351 113.558  80.648  1.00  0.00     0.003 A 
ATOM     31  C   UNL     1     117.240 112.208  77.852  1.00  0.00     0.045 C 
ENDBRANCH   4  21
TORSDOF 4
ENDMDL
MODEL 12
REMARK VINA RESULT:      -9.4      4.237      7.572
REMARK SMILES Cc1cccc2ncc(-c3ccc(OC4CCN(C(=O)[C@@H]5CCCO5)CC4)cc3)cc12
REMARK SMILES IDX 13 1 12 2 28 3 10 4 11 5 29 6 14 7 15 8 19 9 20 10 18 11
REMARK SMILES IDX 17 12 26 13 16 14 27 15 21 16 25 17 24 18 22 19 23 20 9 21
REMARK SMILES IDX 30 22 8 23 31 24 7 25 6 26 2 27 5 28 3 29 4 30 1 31
REMARK H PARENT
ROOT
ATOM      1  C   UNL     1     118.868 114.540  80.525  1.00  0.00     0.119 A 
ATOM      2  C   UNL     1     118.338 114.885  81.769  1.00  0.00     0.047 A 
ATOM      3  C   UNL     1     119.741 113.457  80.417  1.00  0.00     0.047 A 
ATOM      4  C   UNL     1     119.554 113.066  82.793  1.00  0.00    -0.017 A 
ATOM      5  C   UNL     1     118.682 114.149  82.902  1.00  0.00     0.012 A 
ATOM      6  C   UNL     1     120.084 112.719  81.550  1.00  0.00     0.012 A 
ENDROOT
BRANCH   1   7
ATOM      7  O   UNL     1     118.531 115.262  79.412  1.00  0.00    -0.490 OA
BRANCH   7   8
ATOM      8  C   UNL     1     117.365 114.847  78.708  1.00  0.00     0.176 C 
ATOM      9  C   UNL     1     113.432 113.500  79.383  1.00  0.00     0.251 C 
ATOM     10  O   UNL     1     113.213 112.327  79.694  1.00  0.00    -0.272 OA
ATOM     11  N   UNL     1     114.619 113.947  78.802  1.00  0.00    -0.340 N 
ATOM     12  C   UNL     1     115.679 112.988  78.482  1.00  0.00     0.123 C 
ATOM     13  C   UNL     1     114.908 115.336  78.421  1.00  0.00     0.123 C 
ATOM     14  C   UNL     1     117.005 113.414  79.105  1.00  0.00     0.067 C 
ATOM     15  C   UNL     1     116.221 115.804  79.041  1.00  0.00     0.067 C 
BRANCH   9  16
ATOM     16  C   UNL     1     112.378 114.533  79.635  1.00  0.00     0.207 C 
ATOM     17  O   UNL     1     111.666 114.692  78.405  1.00  0.00    -0.368 OA
ATOM     18  C   UNL     1     110.311 114.265  78.603  1.00  0.00     0.161 C 
ATOM     19  C   UNL     1     111.378 114.096  80.688  1.00  0.00     0.044 C 
ATOM     20  C   UNL     1     110.305 113.428  79.862  1.00  0.00     0.032 C 
ENDBRANCH   9  16
ENDBRANCH   7   8
ENDBRANCH   1   7
BRANCH   4  21
ATOM     21  C   UNL     1     119.908 112.301  83.969  1.00  0.00     0.001 A 
ATOM     22  C   UNL     1     119.452 112.663  85.228  1.00  0.00     0.021 A 
ATOM     23  C   UNL     1     120.713 111.183  83.878  1.00  0.00     0.120 A 
ATOM     24  C   UNL     1     119.811 111.907  86.352  1.00  0.00     0.004 A 
ATOM     25  N   UNL     1     121.082 110.426  84.936  1.00  0.00    -0.256 NA
ATOM     26  C   UNL     1     120.639 110.780  86.158  1.00  0.00     0.070 A 
ATOM     27  C   UNL     1     119.367 112.246  87.641  1.00  0.00    -0.042 A 
ATOM     28  C   UNL     1     120.995 110.030  87.275  1.00  0.00     0.029 A 
ATOM     29  C   UNL     1     119.739 111.477  88.740  1.00  0.00     0.004 A 
ATOM     30  C   UNL     1     120.554 110.368  88.556  1.00  0.00     0.003 A 
ATOM     31  C   UNL     1     118.487 113.432  87.893  1.00  0.00     0.045 C 
ENDBRANCH   4  21
TORSDOF 4
ENDMDL
MODEL 13
REMARK VINA RESULT:      -9.3      2.154      3.392
REMARK SMILES Cc1cccc2ncc(-c3ccc(OC4CCN(C(=O)[C@@H]5CCCO5)CC4)cc3)cc12
REMARK SMILES IDX 13 1 12 2 28 3 10 4 11 5 29 6 14 7 15 8 19 9 20 10 18 11
REMARK SMILES IDX 17 12 26 13 16 14 27 15 21 16 25 17 24 18 22 19 23 20 9 21
REMARK SMILES IDX 30 22 8 23 31 24 7 25 6 26 2 27 5 28 3 29 4 30 1 31
REMARK H PARENT
ROOT
ATOM      1  C   UNL     1     111.801 115.283  78.709  1.00  0.00     0.119 A 
ATOM      2  C   UNL     1     112.935 115.834  78.111  1.00  0.00     0.047 A 
ATOM      3  C   UNL     1     111.919 114.574  79.905  1.00  0.00     0.047 A 
ATOM      4  C   UNL     1     114.303 114.964  79.903  1.00  0.00    -0.017 A 
ATOM      5  C   UNL     1     114.185 115.673  78.707  1.00  0.00     0.012 A 
ATOM      6  C   UNL     1     113.170 114.414  80.502  1.00  0.00     0.012 A 
ENDROOT
BRANCH   1   7
ATOM      7  O   UNL     1     110.573 115.440  78.124  1.00  0.00    -0.490 OA
BRANCH   7   8
ATOM      8  C   UNL     1     110.247 114.543  77.069  1.00  0.00     0.176 C 
ATOM      9  C   UNL     1     107.922 111.122  76.275  1.00  0.00     0.251 C 
ATOM     10  O   UNL     1     108.314 110.002  76.610  1.00  0.00    -0.272 OA
ATOM     11  N   UNL     1     108.747 112.241  76.167  1.00  0.00    -0.340 N 
ATOM     12  C   UNL     1     110.186 112.111  76.412  1.00  0.00     0.123 C 
ATOM     13  C   UNL     1     108.308 113.586  75.770  1.00  0.00     0.123 C 
ATOM     14  C   UNL     1     110.653 113.119  77.456  1.00  0.00     0.067 C 
ATOM     15  C   UNL     1     108.744 114.622  76.801  1.00  0.00     0.067 C 
BRANCH   9  16
ATOM     16  C   UNL     1     106.472 111.326  75.961  1.00  0.00     0.207 C 
ATOM     17  O   UNL     1     105.843 110.049  76.110  1.00  0.00    -0.368 OA
ATOM     18  C   UNL     1     104.905 110.126  77.192  1.00  0.00     0.161 C 
ATOM     19  C   UNL     1     105.798 112.281  76.927  1.00  0.00     0.044 C 
ATOM     20  C   UNL     1     105.276 111.351  77.997  1.00  0.00     0.032 C 
ENDBRANCH   9  16
ENDBRANCH   7   8
ENDBRANCH   1   7
BRANCH   4  21
ATOM     21  C   UNL     1     115.600 114.801  80.523  1.00  0.00     0.001 A 
ATOM     22  C   UNL     1     116.535 113.911  80.014  1.00  0.00     0.021 A 
ATOM     23  C   UNL     1     115.953 115.526  81.643  1.00  0.00     0.120 A 
ATOM     24  C   UNL     1     117.783 113.769  80.634  1.00  0.00     0.004 A 
ATOM     25  N   UNL     1     117.146 115.419  82.271  1.00  0.00    -0.256 NA
ATOM     26  C   UNL     1     118.051 114.553  81.775  1.00  0.00     0.070 A 
ATOM     27  C   UNL     1     118.751 112.876  80.144  1.00  0.00    -0.042 A 
ATOM     28  C   UNL     1     119.292 114.412  82.391  1.00  0.00     0.029 A 
ATOM     29  C   UNL     1     119.984 112.755  80.780  1.00  0.00     0.004 A 
ATOM     30  C   UNL     1     120.254 113.524  81.904  1.00  0.00     0.003 A 
ATOM     31  C   UNL     1     118.511 112.024  78.936  1.00  0.00     0.045 C 
ENDBRANCH   4  21
TORSDOF 4
ENDMDL
MODEL 14
REMARK VINA RESULT:      -9.3      3.594      5.271
REMARK SMILES Cc1cccc2ncc(-c3ccc(OC4CCN(C(=O)[C@@H]5CCCO5)CC4)cc3)cc12
REMARK SMILES IDX 13 1 12 2 28 3 10 4 11 5 29 6 14 7 15 8 19 9 20 10 18 11
REMARK SMILES IDX 17 12 26 13 16 14 27 15 21 16 25 17 24 18 22 19 23 20 9 21
REMARK SMILES IDX 30 22 8 23 31 24 7 25 6 26 2 27 5 28 3 29 4 30 1 31
REMARK H PARENT
ROOT
ATOM      1  C   UNL     1     110.734 110.697  77.290  1.00  0.00     0.119 A 
ATOM      2  C   UNL     1     110.804 110.772  78.681  1.00  0.00     0.047 A 
ATOM      3  C   UNL     1     111.643 111.410  76.507  1.00  0.00     0.047 A 
ATOM      4  C   UNL     1     112.690 112.272  78.506  1.00  0.00    -0.017 A 
ATOM      5  C   UNL     1     111.781 111.560  79.289  1.00  0.00     0.012 A 
ATOM      6  C   UNL     1     112.621 112.197  77.115  1.00  0.00     0.012 A 
ENDROOT
BRANCH   1   7
ATOM      7  O   UNL     1     109.775 109.923  76.693  1.00  0.00    -0.490 OA
BRANCH   7   8
ATOM      8  C   UNL     1     108.585 110.585  76.278  1.00  0.00     0.176 C 
ATOM      9  C   UNL     1     104.638 111.331  77.544  1.00  0.00     0.251 C 
ATOM     10  O   UNL     1     103.763 110.470  77.419  1.00  0.00    -0.272 OA
ATOM     11  N   UNL     1     105.848 111.322  76.851  1.00  0.00    -0.340 N 
ATOM     12  C   UNL     1     106.118 110.269  75.869  1.00  0.00     0.123 C 
ATOM     13  C   UNL     1     106.907 112.333  76.979  1.00  0.00     0.123 C 
ATOM     14  C   UNL     1     107.442 109.573  76.168  1.00  0.00     0.067 C 
ATOM     15  C   UNL     1     108.246 111.674  77.296  1.00  0.00     0.067 C 
BRANCH   9  16
ATOM     16  C   UNL     1     104.416 112.467  78.494  1.00  0.00     0.207 C 
ATOM     17  O   UNL     1     103.135 113.017  78.174  1.00  0.00    -0.368 OA
ATOM     18  C   UNL     1     102.261 112.822  79.294  1.00  0.00     0.161 C 
ATOM     19  C   UNL     1     104.368 112.012  79.940  1.00  0.00     0.044 C 
ATOM     20  C   UNL     1     102.896 111.752  80.152  1.00  0.00     0.032 C 
ENDBRANCH   9  16
ENDBRANCH   7   8
ENDBRANCH   1   7
BRANCH   4  21
ATOM     21  C   UNL     1     113.705 113.087  79.137  1.00  0.00     0.001 A 
ATOM     22  C   UNL     1     115.051 112.912  78.849  1.00  0.00     0.021 A 
ATOM     23  C   UNL     1     113.370 114.067  80.049  1.00  0.00     0.120 A 
ATOM     24  C   UNL     1     116.016 113.712  79.475  1.00  0.00     0.004 A 
ATOM     25  N   UNL     1     114.269 114.860  80.675  1.00  0.00    -0.256 NA
ATOM     26  C   UNL     1     115.575 114.688  80.393  1.00  0.00     0.070 A 
ATOM     27  C   UNL     1     117.387 113.559  79.206  1.00  0.00    -0.042 A 
ATOM     28  C   UNL     1     116.534 115.482  81.015  1.00  0.00     0.029 A 
ATOM     29  C   UNL     1     118.324 114.368  79.843  1.00  0.00     0.004 A 
ATOM     30  C   UNL     1     117.896 115.331  80.748  1.00  0.00     0.003 A 
ATOM     31  C   UNL     1     117.900 112.538  78.238  1.00  0.00     0.045 C 
ENDBRANCH   4  21
TORSDOF 4
ENDMDL
MODEL 15
REMARK VINA RESULT:      -9.2      3.205     10.371
REMARK SMILES Cc1cccc2ncc(-c3ccc(OC4CCN(C(=O)[C@@H]5CCCO5)CC4)cc3)cc12
REMARK SMILES IDX 13 1 12 2 28 3 10 4 11 5 29 6 14 7 15 8 19 9 20 10 18 11
REMARK SMILES IDX 17 12 26 13 16 14 27 15 21 16 25 17 24 18 22 19 23 20 9 21
REMARK SMILES IDX 30 22 8 23 31 24 7 25 6 26 2 27 5 28 3 29 4 30 1 31
REMARK H PARENT
ROOT
ATOM      1  C   UNL     1     111.981 113.297  78.366  1.00  0.00     0.119 A 
ATOM      2  C   UNL     1     111.013 114.146  77.830  1.00  0.00     0.047 A 
ATOM      3  C   UNL     1     112.146 112.012  77.848  1.00  0.00     0.047 A 
ATOM      4  C   UNL     1     110.374 112.425  76.258  1.00  0.00    -0.017 A 
ATOM      5  C   UNL     1     110.209 113.710  76.777  1.00  0.00     0.012 A 
ATOM      6  C   UNL     1     111.342 111.576  76.794  1.00  0.00     0.012 A 
ENDROOT
BRANCH   1   7
ATOM      7  O   UNL     1     112.771 113.725  79.400  1.00  0.00    -0.490 OA
BRANCH   7   8
ATOM      8  C   UNL     1     114.156 113.893  79.121  1.00  0.00     0.176 C 
ATOM      9  C   UNL     1     117.860 114.371  81.067  1.00  0.00     0.251 C 
ATOM     10  O   UNL     1     118.197 115.467  81.520  1.00  0.00    -0.272 OA
ATOM     11  N   UNL     1     116.853 114.191  80.119  1.00  0.00    -0.340 N 
ATOM     12  C   UNL     1     116.159 115.356  79.565  1.00  0.00     0.123 C 
ATOM     13  C   UNL     1     116.431 112.899  79.562  1.00  0.00     0.123 C 
ATOM     14  C   UNL     1     114.648 115.212  79.718  1.00  0.00     0.067 C 
ATOM     15  C   UNL     1     114.925 112.712  79.712  1.00  0.00     0.067 C 
BRANCH   9  16
ATOM     16  C   UNL     1     118.556 113.135  81.549  1.00  0.00     0.207 C 
ATOM     17  O   UNL     1     119.550 112.824  80.570  1.00  0.00    -0.368 OA
ATOM     18  C   UNL     1     120.844 112.949  81.176  1.00  0.00     0.161 C 
ATOM     19  C   UNL     1     119.269 113.349  82.871  1.00  0.00     0.044 C 
ATOM     20  C   UNL     1     120.652 113.769  82.432  1.00  0.00     0.032 C 
ENDBRANCH   9  16
ENDBRANCH   7   8
ENDBRANCH   1   7
BRANCH   4  21
ATOM     21  C   UNL     1     109.542 111.975  75.164  1.00  0.00     0.001 A 
ATOM     22  C   UNL     1     109.700 112.482  73.883  1.00  0.00     0.021 A 
ATOM     23  C   UNL     1     108.560 111.023  75.357  1.00  0.00     0.120 A 
ATOM     24  C   UNL     1     108.880 112.032  72.840  1.00  0.00     0.004 A 
ATOM     25  N   UNL     1     107.749 110.562  74.379  1.00  0.00    -0.256 NA
ATOM     26  C   UNL     1     107.904 111.057  73.136  1.00  0.00     0.070 A 
ATOM     27  C   UNL     1     109.014 112.526  71.531  1.00  0.00    -0.042 A 
ATOM     28  C   UNL     1     107.090 110.609  72.100  1.00  0.00     0.029 A 
ATOM     29  C   UNL     1     108.185 112.060  70.514  1.00  0.00     0.004 A 
ATOM     30  C   UNL     1     107.223 111.100  70.799  1.00  0.00     0.003 A 
ATOM     31  C   UNL     1     110.036 113.560  71.171  1.00  0.00     0.045 C 
ENDBRANCH   4  21
TORSDOF 4
ENDMDL
