MODEL 1
REMARK VINA RESULT:      -8.0      0.000      0.000
REMARK SMILES C1=Nc2nc(-c3cccc(-c4ccc5cccnc5n4)n3)ccc2CC1
REMARK SMILES IDX 21 1 6 2 10 3 7 4 9 5 8 6 5 7 4 8 3 9 2 10 24 11 22 12 1 13
REMARK SMILES IDX 25 14 23 15 26 16 11 17 20 18 12 19 19 20 13 21 18 22 14 23
REMARK SMILES IDX 17 24 15 25 16 26
REMARK H PARENT
ROOT
ATOM      1  N   UNL     1      97.415 107.445 110.754  1.00  0.00    -0.245 NA
ATOM      2  C   UNL     1      96.863 107.917 111.896  1.00  0.00     0.089 A 
ATOM      3  C   UNL     1      97.030 108.049 109.607  1.00  0.00     0.089 A 
ATOM      4  C   UNL     1      95.951 108.959 111.944  1.00  0.00     0.031 A 
ATOM      5  C   UNL     1      96.125 109.096 109.548  1.00  0.00     0.031 A 
ATOM      6  C   UNL     1      95.580 109.554 110.743  1.00  0.00     0.005 A 
ENDROOT
BRANCH   2   7
ATOM      7  C   UNL     1      97.295 107.251 113.102  1.00  0.00     0.091 A 
ATOM      8  N   UNL     1      97.253 105.900 113.049  1.00  0.00    -0.227 NA
ATOM      9  C   UNL     1      97.644 105.228 114.158  1.00  0.00     0.155 A 
ATOM     10  N   UNL     1      97.604 103.824 114.052  1.00  0.00    -0.241 NA
ATOM     11  C   UNL     1      98.076 105.870 115.321  1.00  0.00    -0.003 A 
ATOM     12  C   UNL     1      97.716 107.972 114.204  1.00  0.00     0.031 A 
ATOM     13  C   UNL     1      97.699 103.127 115.142  1.00  0.00     0.086 C 
ATOM     14  C   UNL     1      98.540 105.054 116.489  1.00  0.00     0.045 C 
ATOM     15  C   UNL     1      98.119 107.264 115.329  1.00  0.00     0.010 A 
ATOM     16  C   UNL     1      97.812 103.719 116.521  1.00  0.00     0.053 C 
ENDBRANCH   2   7
BRANCH   3  17
ATOM     17  C   UNL     1      97.637 107.522 108.409  1.00  0.00     0.091 A 
ATOM     18  N   UNL     1      96.939 107.750 107.270  1.00  0.00    -0.226 NA
ATOM     19  C   UNL     1      98.835 106.844 108.457  1.00  0.00     0.031 A 
ATOM     20  C   UNL     1      97.423 107.298 106.107  1.00  0.00     0.159 A 
ATOM     21  C   UNL     1      99.342 106.373 107.259  1.00  0.00     0.014 A 
ATOM     22  N   UNL     1      96.731 107.524 104.981  1.00  0.00    -0.237 NA
ATOM     23  C   UNL     1      98.640 106.595 106.065  1.00  0.00     0.019 A 
ATOM     24  C   UNL     1      97.219 107.068 103.804  1.00  0.00     0.113 A 
ATOM     25  C   UNL     1      99.122 106.134 104.832  1.00  0.00     0.013 A 
ATOM     26  C   UNL     1      98.401 106.372 103.675  1.00  0.00     0.021 A 
ENDBRANCH   3  17
TORSDOF 2
ENDMDL
MODEL 2
REMARK VINA RESULT:      -7.9      0.230      8.201
REMARK SMILES C1=Nc2nc(-c3cccc(-c4ccc5cccnc5n4)n3)ccc2CC1
REMARK SMILES IDX 21 1 6 2 10 3 7 4 9 5 8 6 5 7 4 8 3 9 2 10 24 11 22 12 1 13
REMARK SMILES IDX 25 14 23 15 26 16 11 17 20 18 12 19 19 20 13 21 18 22 14 23
REMARK SMILES IDX 17 24 15 25 16 26
REMARK H PARENT
ROOT
ATOM      1  N   UNL     1      97.389 107.485 110.758  1.00  0.00    -0.245 NA
ATOM      2  C   UNL     1      96.972 108.090 109.623  1.00  0.00     0.089 A 
ATOM      3  C   UNL     1      96.848 107.935 111.912  1.00  0.00     0.089 A 
ATOM      4  C   UNL     1      96.044 109.118 109.587  1.00  0.00     0.031 A 
ATOM      5  C   UNL     1      95.916 108.957 111.985  1.00  0.00     0.031 A 
ATOM      6  C   UNL     1      95.511 109.555 110.795  1.00  0.00     0.005 A 
ENDROOT
BRANCH   2   7
ATOM      7  C   UNL     1      97.568 107.586 108.408  1.00  0.00     0.091 A 
ATOM      8  N   UNL     1      96.868 107.847 107.281  1.00  0.00    -0.227 NA
ATOM      9  C   UNL     1      97.384 107.392 106.115  1.00  0.00     0.155 A 
ATOM     10  N   UNL     1      96.633 107.703 104.966  1.00  0.00    -0.241 NA
ATOM     11  C   UNL     1      98.584 106.680 106.044  1.00  0.00    -0.003 A 
ATOM     12  C   UNL     1      98.768 106.898 108.434  1.00  0.00     0.031 A 
ATOM     13  C   UNL     1      96.914 107.078 103.865  1.00  0.00     0.086 C 
ATOM     14  C   UNL     1      99.114 106.253 104.709  1.00  0.00     0.045 C 
ATOM     15  C   UNL     1      99.284 106.444 107.227  1.00  0.00     0.010 A 
ATOM     16  C   UNL     1      97.967 106.010 103.740  1.00  0.00     0.053 C 
ENDBRANCH   2   7
BRANCH   3  17
ATOM     17  C   UNL     1      97.315 107.268 113.104  1.00  0.00     0.091 A 
ATOM     18  N   UNL     1      97.285 105.915 113.048  1.00  0.00    -0.226 NA
ATOM     19  C   UNL     1      97.750 107.986 114.196  1.00  0.00     0.031 A 
ATOM     20  C   UNL     1      97.698 105.209 114.107  1.00  0.00     0.159 A 
ATOM     21  C   UNL     1      98.179 107.264 115.296  1.00  0.00     0.014 A 
ATOM     22  N   UNL     1      97.668 103.870 114.051  1.00  0.00    -0.237 NA
ATOM     23  C   UNL     1      98.158 105.862 115.264  1.00  0.00     0.019 A 
ATOM     24  C   UNL     1      98.085 103.154 115.121  1.00  0.00     0.113 A 
ATOM     25  C   UNL     1      98.585 105.096 116.359  1.00  0.00     0.013 A 
ATOM     26  C   UNL     1      98.550 103.714 116.291  1.00  0.00     0.021 A 
ENDBRANCH   3  17
TORSDOF 2
ENDMDL
MODEL 3
REMARK VINA RESULT:      -7.3      1.178      7.809
REMARK SMILES C1=Nc2nc(-c3cccc(-c4ccc5cccnc5n4)n3)ccc2CC1
REMARK SMILES IDX 21 1 6 2 10 3 7 4 9 5 8 6 5 7 4 8 3 9 2 10 24 11 22 12 1 13
REMARK SMILES IDX 25 14 23 15 26 16 11 17 20 18 12 19 19 20 13 21 18 22 14 23
REMARK SMILES IDX 17 24 15 25 16 26
REMARK H PARENT
ROOT
ATOM      1  N   UNL     1      96.807 107.977 111.465  1.00  0.00    -0.245 NA
ATOM      2  C   UNL     1      96.272 108.890 110.622  1.00  0.00     0.089 A 
ATOM      3  C   UNL     1      96.757 108.274 112.782  1.00  0.00     0.089 A 
ATOM      4  C   UNL     1      95.692 110.079 111.033  1.00  0.00     0.031 A 
ATOM      5  C   UNL     1      96.200 109.435 113.295  1.00  0.00     0.031 A 
ATOM      6  C   UNL     1      95.659 110.349 112.397  1.00  0.00     0.005 A 
ENDROOT
BRANCH   2   7
ATOM      7  C   UNL     1      96.343 108.543 109.222  1.00  0.00     0.091 A 
ATOM      8  N   UNL     1      97.323 107.667 108.904  1.00  0.00    -0.227 NA
ATOM      9  C   UNL     1      97.433 107.312 107.602  1.00  0.00     0.155 A 
ATOM     10  N   UNL     1      98.454 106.384 107.319  1.00  0.00    -0.241 NA
ATOM     11  C   UNL     1      96.590 107.810 106.606  1.00  0.00    -0.003 A 
ATOM     12  C   UNL     1      95.455 109.081 108.308  1.00  0.00     0.031 A 
ATOM     13  C   UNL     1      98.793 106.208 106.080  1.00  0.00     0.086 C 
ATOM     14  C   UNL     1      96.745 107.330 105.195  1.00  0.00     0.045 C 
ATOM     15  C   UNL     1      95.581 108.699 106.978  1.00  0.00     0.010 A 
ATOM     16  C   UNL     1      98.194 106.961 104.921  1.00  0.00     0.053 C 
ENDBRANCH   2   7
BRANCH   3  17
ATOM     17  C   UNL     1      97.336 107.280 113.653  1.00  0.00     0.091 A 
ATOM     18  N   UNL     1      97.035 105.998 113.333  1.00  0.00    -0.226 NA
ATOM     19  C   UNL     1      98.129 107.644 114.719  1.00  0.00     0.031 A 
ATOM     20  C   UNL     1      97.527 105.006 114.085  1.00  0.00     0.159 A 
ATOM     21  C   UNL     1      98.642 106.623 115.501  1.00  0.00     0.014 A 
ATOM     22  N   UNL     1      97.229 103.738 113.768  1.00  0.00    -0.237 NA
ATOM     23  C   UNL     1      98.346 105.288 115.192  1.00  0.00     0.019 A 
ATOM     24  C   UNL     1      97.725 102.733 114.526  1.00  0.00     0.113 A 
ATOM     25  C   UNL     1      98.847 104.228 115.961  1.00  0.00     0.013 A 
ATOM     26  C   UNL     1      98.534 102.922 115.626  1.00  0.00     0.021 A 
ENDBRANCH   3  17
TORSDOF 2
ENDMDL
MODEL 4
REMARK VINA RESULT:      -7.2      1.216      1.971
REMARK SMILES C1=Nc2nc(-c3cccc(-c4ccc5cccnc5n4)n3)ccc2CC1
REMARK SMILES IDX 21 1 6 2 10 3 7 4 9 5 8 6 5 7 4 8 3 9 2 10 24 11 22 12 1 13
REMARK SMILES IDX 25 14 23 15 26 16 11 17 20 18 12 19 19 20 13 21 18 22 14 23
REMARK SMILES IDX 17 24 15 25 16 26
REMARK H PARENT
ROOT
ATOM      1  N   UNL     1      96.857 107.768 111.553  1.00  0.00    -0.245 NA
ATOM      2  C   UNL     1      96.825 108.017 112.882  1.00  0.00     0.089 A 
ATOM      3  C   UNL     1      96.315 108.711 110.752  1.00  0.00     0.089 A 
ATOM      4  C   UNL     1      96.279 109.159 113.444  1.00  0.00     0.031 A 
ATOM      5  C   UNL     1      95.744 109.887 111.214  1.00  0.00     0.031 A 
ATOM      6  C   UNL     1      95.730 110.107 112.588  1.00  0.00     0.005 A 
ENDROOT
BRANCH   2   7
ATOM      7  C   UNL     1      97.411 106.989 113.710  1.00  0.00     0.091 A 
ATOM      8  N   UNL     1      97.151 105.723 113.311  1.00  0.00    -0.227 NA
ATOM      9  C   UNL     1      97.677 104.722 114.057  1.00  0.00     0.155 A 
ATOM     10  N   UNL     1      97.397 103.421 113.595  1.00  0.00    -0.241 NA
ATOM     11  C   UNL     1      98.455 104.952 115.194  1.00  0.00    -0.003 A 
ATOM     12  C   UNL     1      98.179 107.313 114.814  1.00  0.00     0.031 A 
ATOM     13  C   UNL     1      97.629 102.427 114.394  1.00  0.00     0.086 C 
ATOM     14  C   UNL     1      99.042 103.791 115.937  1.00  0.00     0.045 C 
ATOM     15  C   UNL     1      98.714 106.272 115.562  1.00  0.00     0.010 A 
ATOM     16  C   UNL     1      98.143 102.571 115.801  1.00  0.00     0.053 C 
ENDBRANCH   2   7
BRANCH   3  17
ATOM     17  C   UNL     1      96.366 108.415 109.340  1.00  0.00     0.091 A 
ATOM     18  N   UNL     1      97.344 107.551 108.975  1.00  0.00    -0.226 NA
ATOM     19  C   UNL     1      95.472 108.985 108.461  1.00  0.00     0.031 A 
ATOM     20  C   UNL     1      97.470 107.216 107.685  1.00  0.00     0.159 A 
ATOM     21  C   UNL     1      95.596 108.643 107.126  1.00  0.00     0.014 A 
ATOM     22  N   UNL     1      98.438 106.361 107.325  1.00  0.00    -0.237 NA
ATOM     23  C   UNL     1      96.599 107.752 106.721  1.00  0.00     0.019 A 
ATOM     24  C   UNL     1      98.567 106.021 106.022  1.00  0.00     0.113 A 
ATOM     25  C   UNL     1      96.755 107.382 105.377  1.00  0.00     0.013 A 
ATOM     26  C   UNL     1      97.758 106.499 105.014  1.00  0.00     0.021 A 
ENDBRANCH   3  17
TORSDOF 2
ENDMDL
MODEL 5
REMARK VINA RESULT:      -7.1      2.318      4.421
REMARK SMILES C1=Nc2nc(-c3cccc(-c4ccc5cccnc5n4)n3)ccc2CC1
REMARK SMILES IDX 21 1 6 2 10 3 7 4 9 5 8 6 5 7 4 8 3 9 2 10 24 11 22 12 1 13
REMARK SMILES IDX 25 14 23 15 26 16 11 17 20 18 12 19 19 20 13 21 18 22 14 23
REMARK SMILES IDX 17 24 15 25 16 26
REMARK H PARENT
ROOT
ATOM      1  N   UNL     1      97.412 107.473 107.724  1.00  0.00    -0.245 NA
ATOM      2  C   UNL     1      98.035 107.458 108.925  1.00  0.00     0.089 A 
ATOM      3  C   UNL     1      98.050 106.848 106.709  1.00  0.00     0.089 A 
ATOM      4  C   UNL     1      99.258 106.850 109.157  1.00  0.00     0.031 A 
ATOM      5  C   UNL     1      99.275 106.213 106.837  1.00  0.00     0.031 A 
ATOM      6  C   UNL     1      99.884 106.219 108.088  1.00  0.00     0.005 A 
ENDROOT
BRANCH   2   7
ATOM      7  C   UNL     1      97.328 108.134 109.987  1.00  0.00     0.091 A 
ATOM      8  N   UNL     1      97.774 107.854 111.232  1.00  0.00    -0.227 NA
ATOM      9  C   UNL     1      97.141 108.461 112.264  1.00  0.00     0.155 A 
ATOM     10  N   UNL     1      97.650 108.157 113.542  1.00  0.00    -0.241 NA
ATOM     11  C   UNL     1      96.071 109.341 112.085  1.00  0.00    -0.003 A 
ATOM     12  C   UNL     1      96.283 108.998 109.712  1.00  0.00     0.031 A 
ATOM     13  C   UNL     1      96.937 108.477 114.576  1.00  0.00     0.086 C 
ATOM     14  C   UNL     1      95.455 110.011 113.276  1.00  0.00     0.045 C 
ATOM     15  C   UNL     1      95.651 109.615 110.784  1.00  0.00     0.010 A 
ATOM     16  C   UNL     1      95.577 109.120 114.503  1.00  0.00     0.053 C 
ENDBRANCH   2   7
BRANCH   3  17
ATOM     17  C   UNL     1      97.359 106.883 105.443  1.00  0.00     0.091 A 
ATOM     18  N   UNL     1      98.106 106.510 104.376  1.00  0.00    -0.226 NA
ATOM     19  C   UNL     1      96.039 107.270 105.363  1.00  0.00     0.031 A 
ATOM     20  C   UNL     1      97.551 106.510 103.158  1.00  0.00     0.159 A 
ATOM     21  C   UNL     1      95.457 107.273 104.108  1.00  0.00     0.014 A 
ATOM     22  N   UNL     1      98.291 106.142 102.103  1.00  0.00    -0.237 NA
ATOM     23  C   UNL     1      96.209 106.892 102.986  1.00  0.00     0.019 A 
ATOM     24  C   UNL     1      97.732 106.142 100.871  1.00  0.00     0.113 A 
ATOM     25  C   UNL     1      95.653 106.883 101.699  1.00  0.00     0.013 A 
ATOM     26  C   UNL     1      96.426 106.501 100.615  1.00  0.00     0.021 A 
ENDBRANCH   3  17
TORSDOF 2
ENDMDL
MODEL 6
REMARK VINA RESULT:      -7.1     11.382     12.533
REMARK SMILES C1=Nc2nc(-c3cccc(-c4ccc5cccnc5n4)n3)ccc2CC1
REMARK SMILES IDX 21 1 6 2 10 3 7 4 9 5 8 6 5 7 4 8 3 9 2 10 24 11 22 12 1 13
REMARK SMILES IDX 25 14 23 15 26 16 11 17 20 18 12 19 19 20 13 21 18 22 14 23
REMARK SMILES IDX 17 24 15 25 16 26
REMARK H PARENT
ROOT
ATOM      1  N   UNL     1     100.365  95.748 110.205  1.00  0.00    -0.245 NA
ATOM      2  C   UNL     1     100.556  96.036 111.512  1.00  0.00     0.089 A 
ATOM      3  C   UNL     1      99.081  95.666 109.789  1.00  0.00     0.089 A 
ATOM      4  C   UNL     1      99.529  96.246 112.419  1.00  0.00     0.031 A 
ATOM      5  C   UNL     1      97.985  95.858 110.615  1.00  0.00     0.031 A 
ATOM      6  C   UNL     1      98.222  96.153 111.954  1.00  0.00     0.005 A 
ENDROOT
BRANCH   2   7
ATOM      7  C   UNL     1     101.937  96.115 111.924  1.00  0.00     0.091 A 
ATOM      8  N   UNL     1     102.603  94.938 111.905  1.00  0.00    -0.227 NA
ATOM      9  C   UNL     1     103.902  94.958 112.286  1.00  0.00     0.155 A 
ATOM     10  N   UNL     1     104.562  93.715 112.232  1.00  0.00    -0.241 NA
ATOM     11  C   UNL     1     104.556  96.126 112.688  1.00  0.00    -0.003 A 
ATOM     12  C   UNL     1     102.504  97.321 112.296  1.00  0.00     0.031 A 
ATOM     13  C   UNL     1     105.706  93.604 112.832  1.00  0.00     0.086 C 
ATOM     14  C   UNL     1     106.010  96.074 113.047  1.00  0.00     0.045 C 
ATOM     15  C   UNL     1     103.839  97.322 112.678  1.00  0.00     0.010 A 
ATOM     16  C   UNL     1     106.363  94.708 113.616  1.00  0.00     0.053 C 
ENDBRANCH   2   7
BRANCH   3  17
ATOM     17  C   UNL     1      98.913  95.358 108.389  1.00  0.00     0.091 A 
ATOM     18  N   UNL     1      99.997  94.807 107.793  1.00  0.00    -0.226 NA
ATOM     19  C   UNL     1      97.725  95.617 107.742  1.00  0.00     0.031 A 
ATOM     20  C   UNL     1      99.936  94.487 106.495  1.00  0.00     0.159 A 
ATOM     21  C   UNL     1      97.653  95.289 106.400  1.00  0.00     0.014 A 
ATOM     22  N   UNL     1     101.010  93.943 105.906  1.00  0.00    -0.237 NA
ATOM     23  C   UNL     1      98.762  94.718 105.758  1.00  0.00     0.019 A 
ATOM     24  C   UNL     1     100.951  93.619 104.593  1.00  0.00     0.113 A 
ATOM     25  C   UNL     1      98.726  94.372 104.400  1.00  0.00     0.013 A 
ATOM     26  C   UNL     1      99.841  93.811 103.799  1.00  0.00     0.021 A 
ENDBRANCH   3  17
TORSDOF 2
ENDMDL
MODEL 7
REMARK VINA RESULT:      -6.8     11.369     14.106
REMARK SMILES C1=Nc2nc(-c3cccc(-c4ccc5cccnc5n4)n3)ccc2CC1
REMARK SMILES IDX 21 1 6 2 10 3 7 4 9 5 8 6 5 7 4 8 3 9 2 10 24 11 22 12 1 13
REMARK SMILES IDX 25 14 23 15 26 16 11 17 20 18 12 19 19 20 13 21 18 22 14 23
REMARK SMILES IDX 17 24 15 25 16 26
REMARK H PARENT
ROOT
ATOM      1  N   UNL     1     100.548  95.792 110.662  1.00  0.00    -0.245 NA
ATOM      2  C   UNL     1      99.214  95.778 110.436  1.00  0.00     0.089 A 
ATOM      3  C   UNL     1     100.941  96.095 111.919  1.00  0.00     0.089 A 
ATOM      4  C   UNL     1      98.260  96.051 111.403  1.00  0.00     0.031 A 
ATOM      5  C   UNL     1     100.068  96.385 112.956  1.00  0.00     0.031 A 
ATOM      6  C   UNL     1      98.704  96.360 112.684  1.00  0.00     0.005 A 
ENDROOT
BRANCH   2   7
ATOM      7  C   UNL     1      98.828  95.450 109.084  1.00  0.00     0.091 A 
ATOM      8  N   UNL     1      99.817  94.929 108.323  1.00  0.00    -0.227 NA
ATOM      9  C   UNL     1      99.506  94.608 107.044  1.00  0.00     0.155 A 
ATOM     10  N   UNL     1     100.559  94.051 106.294  1.00  0.00    -0.241 NA
ATOM     11  C   UNL     1      98.231  94.795 106.504  1.00  0.00    -0.003 A 
ATOM     12  C   UNL     1      97.535  95.662 108.639  1.00  0.00     0.031 A 
ATOM     13  C   UNL     1     100.419  93.974 105.007  1.00  0.00     0.086 C 
ATOM     14  C   UNL     1      97.954  94.368 105.094  1.00  0.00     0.045 C 
ATOM     15  C   UNL     1      97.235  95.321 107.327  1.00  0.00     0.010 A 
ATOM     16  C   UNL     1      99.217  94.478 104.253  1.00  0.00     0.053 C 
ENDBRANCH   2   7
BRANCH   3  17
ATOM     17  C   UNL     1     102.369  96.101 112.126  1.00  0.00     0.091 A 
ATOM     18  N   UNL     1     102.961  94.885 112.046  1.00  0.00    -0.226 NA
ATOM     19  C   UNL     1     103.045  97.273 112.383  1.00  0.00     0.031 A 
ATOM     20  C   UNL     1     104.284  94.791 112.224  1.00  0.00     0.159 A 
ATOM     21  C   UNL     1     104.413  97.184 112.569  1.00  0.00     0.014 A 
ATOM     22  N   UNL     1     104.868  93.587 112.145  1.00  0.00    -0.237 NA
ATOM     23  C   UNL     1     105.051  95.938 112.492  1.00  0.00     0.019 A 
ATOM     24  C   UNL     1     106.206  93.489 112.325  1.00  0.00     0.113 A 
ATOM     25  C   UNL     1     106.435  95.808 112.674  1.00  0.00     0.013 A 
ATOM     26  C   UNL     1     107.030  94.561 112.591  1.00  0.00     0.021 A 
ENDBRANCH   3  17
TORSDOF 2
ENDMDL
MODEL 8
REMARK VINA RESULT:      -6.6     11.420     12.528
REMARK SMILES C1=Nc2nc(-c3cccc(-c4ccc5cccnc5n4)n3)ccc2CC1
REMARK SMILES IDX 21 1 6 2 10 3 7 4 9 5 8 6 5 7 4 8 3 9 2 10 24 11 22 12 1 13
REMARK SMILES IDX 25 14 23 15 26 16 11 17 20 18 12 19 19 20 13 21 18 22 14 23
REMARK SMILES IDX 17 24 15 25 16 26
REMARK H PARENT
ROOT
ATOM      1  N   UNL     1     100.198  95.400 110.062  1.00  0.00    -0.245 NA
ATOM      2  C   UNL     1     100.422  95.649 111.372  1.00  0.00     0.089 A 
ATOM      3  C   UNL     1      98.926  95.556 109.630  1.00  0.00     0.089 A 
ATOM      4  C   UNL     1      99.440  96.045 112.266  1.00  0.00     0.031 A 
ATOM      5  C   UNL     1      97.874  95.946 110.442  1.00  0.00     0.031 A 
ATOM      6  C   UNL     1      98.144  96.194 111.785  1.00  0.00     0.005 A 
ENDROOT
BRANCH   2   7
ATOM      7  C   UNL     1     101.790  95.473 111.801  1.00  0.00     0.091 A 
ATOM      8  N   UNL     1     102.505  96.617 111.897  1.00  0.00    -0.227 NA
ATOM      9  C   UNL     1     103.796  96.504 112.293  1.00  0.00     0.155 A 
ATOM     10  N   UNL     1     104.497  97.721 112.399  1.00  0.00    -0.241 NA
ATOM     11  C   UNL     1     104.392  95.277 112.594  1.00  0.00    -0.003 A 
ATOM     12  C   UNL     1     102.292  94.216 112.087  1.00  0.00     0.031 A 
ATOM     13  C   UNL     1     105.789  97.674 112.504  1.00  0.00     0.086 C 
ATOM     14  C   UNL     1     105.812  95.242 113.072  1.00  0.00     0.045 C 
ATOM     15  C   UNL     1     103.616  94.123 112.496  1.00  0.00     0.010 A 
ATOM     16  C   UNL     1     106.596  96.403 112.481  1.00  0.00     0.053 C 
ENDBRANCH   2   7
BRANCH   3  17
ATOM     17  C   UNL     1      98.722  95.283 108.228  1.00  0.00     0.091 A 
ATOM     18  N   UNL     1      99.795  94.760 107.587  1.00  0.00    -0.226 NA
ATOM     19  C   UNL     1      97.513  95.545 107.622  1.00  0.00     0.031 A 
ATOM     20  C   UNL     1      99.700  94.474 106.283  1.00  0.00     0.159 A 
ATOM     21  C   UNL     1      97.407  95.252 106.273  1.00  0.00     0.014 A 
ATOM     22  N   UNL     1     100.763  93.958 105.650  1.00  0.00    -0.237 NA
ATOM     23  C   UNL     1      98.503  94.711 105.585  1.00  0.00     0.019 A 
ATOM     24  C   UNL     1     100.669  93.667 104.331  1.00  0.00     0.113 A 
ATOM     25  C   UNL     1      98.432  94.401 104.220  1.00  0.00     0.013 A 
ATOM     26  C   UNL     1      99.535  93.868 103.574  1.00  0.00     0.021 A 
ENDBRANCH   3  17
TORSDOF 2
ENDMDL
MODEL 9
REMARK VINA RESULT:      -6.6     11.854     15.399
REMARK SMILES C1=Nc2nc(-c3cccc(-c4ccc5cccnc5n4)n3)ccc2CC1
REMARK SMILES IDX 21 1 6 2 10 3 7 4 9 5 8 6 5 7 4 8 3 9 2 10 24 11 22 12 1 13
REMARK SMILES IDX 25 14 23 15 26 16 11 17 20 18 12 19 19 20 13 21 18 22 14 23
REMARK SMILES IDX 17 24 15 25 16 26
REMARK H PARENT
ROOT
ATOM      1  N   UNL     1     101.717  94.372 111.453  1.00  0.00    -0.245 NA
ATOM      2  C   UNL     1     100.512  94.649 110.903  1.00  0.00     0.089 A 
ATOM      3  C   UNL     1     101.999  94.987 112.623  1.00  0.00     0.089 A 
ATOM      4  C   UNL     1      99.582  95.507 111.466  1.00  0.00     0.031 A 
ATOM      5  C   UNL     1     101.138  95.862 113.266  1.00  0.00     0.031 A 
ATOM      6  C   UNL     1      99.908  96.122 112.670  1.00  0.00     0.005 A 
ENDROOT
BRANCH   2   7
ATOM      7  C   UNL     1     100.243  93.976 109.654  1.00  0.00     0.091 A 
ATOM      8  N   UNL     1      99.948  94.797 108.621  1.00  0.00    -0.227 NA
ATOM      9  C   UNL     1      99.684  94.214 107.427  1.00  0.00     0.155 A 
ATOM     10  N   UNL     1      99.401  95.106 106.375  1.00  0.00    -0.241 NA
ATOM     11  C   UNL     1      99.705  92.830 107.238  1.00  0.00    -0.003 A 
ATOM     12  C   UNL     1     100.297  92.597 109.560  1.00  0.00     0.031 A 
ATOM     13  C   UNL     1      98.879  94.625 105.290  1.00  0.00     0.086 C 
ATOM     14  C   UNL     1      99.450  92.265 105.874  1.00  0.00     0.045 C 
ATOM     15  C   UNL     1     100.029  92.019 108.326  1.00  0.00     0.010 A 
ATOM     16  C   UNL     1      98.517  93.177 105.092  1.00  0.00     0.053 C 
ENDBRANCH   2   7
BRANCH   3  17
ATOM     17  C   UNL     1     103.290  94.669 113.183  1.00  0.00     0.091 A 
ATOM     18  N   UNL     1     104.251  94.385 112.271  1.00  0.00    -0.226 NA
ATOM     19  C   UNL     1     103.494  94.665 114.545  1.00  0.00     0.031 A 
ATOM     20  C   UNL     1     105.483  94.078 112.695  1.00  0.00     0.159 A 
ATOM     21  C   UNL     1     104.765  94.349 114.992  1.00  0.00     0.014 A 
ATOM     22  N   UNL     1     106.433  93.797 111.792  1.00  0.00    -0.237 NA
ATOM     23  C   UNL     1     105.778  94.050 114.070  1.00  0.00     0.019 A 
ATOM     24  C   UNL     1     107.679  93.486 112.219  1.00  0.00     0.113 A 
ATOM     25  C   UNL     1     107.077  93.725 114.485  1.00  0.00     0.013 A 
ATOM     26  C   UNL     1     108.052  93.436 113.545  1.00  0.00     0.021 A 
ENDBRANCH   3  17
TORSDOF 2
ENDMDL
MODEL 10
REMARK VINA RESULT:      -6.6     13.842     15.791
REMARK SMILES C1=Nc2nc(-c3cccc(-c4ccc5cccnc5n4)n3)ccc2CC1
REMARK SMILES IDX 21 1 6 2 10 3 7 4 9 5 8 6 5 7 4 8 3 9 2 10 24 11 22 12 1 13
REMARK SMILES IDX 25 14 23 15 26 16 11 17 20 18 12 19 19 20 13 21 18 22 14 23
REMARK SMILES IDX 17 24 15 25 16 26
REMARK H PARENT
ROOT
ATOM      1  N   UNL     1     100.195  93.735 101.365  1.00  0.00    -0.245 NA
ATOM      2  C   UNL     1     100.970  92.808 101.974  1.00  0.00     0.089 A 
ATOM      3  C   UNL     1     100.254  93.775 100.015  1.00  0.00     0.089 A 
ATOM      4  C   UNL     1     101.797  91.925 101.299  1.00  0.00     0.031 A 
ATOM      5  C   UNL     1     101.049  92.938  99.249  1.00  0.00     0.031 A 
ATOM      6  C   UNL     1     101.832  91.997  99.911  1.00  0.00     0.005 A 
ENDROOT
BRANCH   2   7
ATOM      7  C   UNL     1     100.883  92.792 103.415  1.00  0.00     0.091 A 
ATOM      8  N   UNL     1      99.665  92.468 103.905  1.00  0.00    -0.227 NA
ATOM      9  C   UNL     1      99.531  92.442 105.253  1.00  0.00     0.155 A 
ATOM     10  N   UNL     1      98.253  92.080 105.721  1.00  0.00    -0.241 NA
ATOM     11  C   UNL     1     100.583  92.734 106.125  1.00  0.00    -0.003 A 
ATOM     12  C   UNL     1     101.983  93.086 104.200  1.00  0.00     0.031 A 
ATOM     13  C   UNL     1      97.976  92.296 106.969  1.00  0.00     0.086 C 
ATOM     14  C   UNL     1     100.366  92.634 107.605  1.00  0.00     0.045 C 
ATOM     15  C   UNL     1     101.827  93.049 105.579  1.00  0.00     0.010 A 
ATOM     16  C   UNL     1      98.918  92.945 107.947  1.00  0.00     0.053 C 
ENDBRANCH   2   7
BRANCH   3  17
ATOM     17  C   UNL     1      99.416  94.774  99.398  1.00  0.00     0.091 A 
ATOM     18  N   UNL     1      98.421  95.249 100.186  1.00  0.00    -0.226 NA
ATOM     19  C   UNL     1      99.640  95.189  98.104  1.00  0.00     0.031 A 
ATOM     20  C   UNL     1      97.591  96.179  99.700  1.00  0.00     0.159 A 
ATOM     21  C   UNL     1      98.785  96.151  97.593  1.00  0.00     0.014 A 
ATOM     22  N   UNL     1      96.607  96.648 100.480  1.00  0.00    -0.237 NA
ATOM     23  C   UNL     1      97.747  96.659  98.387  1.00  0.00     0.019 A 
ATOM     24  C   UNL     1      95.766  97.588  99.991  1.00  0.00     0.113 A 
ATOM     25  C   UNL     1      96.863  97.634  97.905  1.00  0.00     0.013 A 
ATOM     26  C   UNL     1      95.849  98.112  98.718  1.00  0.00     0.021 A 
ENDBRANCH   3  17
TORSDOF 2
ENDMDL
MODEL 11
REMARK VINA RESULT:      -6.5     11.935     13.814
REMARK SMILES C1=Nc2nc(-c3cccc(-c4ccc5cccnc5n4)n3)ccc2CC1
REMARK SMILES IDX 21 1 6 2 10 3 7 4 9 5 8 6 5 7 4 8 3 9 2 10 24 11 22 12 1 13
REMARK SMILES IDX 25 14 23 15 26 16 11 17 20 18 12 19 19 20 13 21 18 22 14 23
REMARK SMILES IDX 17 24 15 25 16 26
REMARK H PARENT
ROOT
ATOM      1  N   UNL     1     101.562  94.397 111.101  1.00  0.00    -0.245 NA
ATOM      2  C   UNL     1     101.766  95.046 112.270  1.00  0.00     0.089 A 
ATOM      3  C   UNL     1     100.366  94.598 110.504  1.00  0.00     0.089 A 
ATOM      4  C   UNL     1     100.836  95.883 112.865  1.00  0.00     0.031 A 
ATOM      5  C   UNL     1      99.370  95.413 111.017  1.00  0.00     0.031 A 
ATOM      6  C   UNL     1      99.618  96.064 112.221  1.00  0.00     0.005 A 
ENDROOT
BRANCH   2   7
ATOM      7  C   UNL     1     103.052  94.810 112.882  1.00  0.00     0.091 A 
ATOM      8  N   UNL     1     104.067  94.610 112.010  1.00  0.00    -0.227 NA
ATOM      9  C   UNL     1     105.294  94.381 112.535  1.00  0.00     0.155 A 
ATOM     10  N   UNL     1     106.324  94.197 111.592  1.00  0.00    -0.241 NA
ATOM     11  C   UNL     1     105.535  94.344 113.911  1.00  0.00    -0.003 A 
ATOM     12  C   UNL     1     103.198  94.802 114.257  1.00  0.00     0.031 A 
ATOM     13  C   UNL     1     107.452  93.710 112.006  1.00  0.00     0.086 C 
ATOM     14  C   UNL     1     106.932  94.133 114.412  1.00  0.00     0.045 C 
ATOM     15  C   UNL     1     104.465  94.570 114.776  1.00  0.00     0.010 A 
ATOM     16  C   UNL     1     107.723  93.288 113.426  1.00  0.00     0.053 C 
ENDBRANCH   2   7
BRANCH   3  17
ATOM     17  C   UNL     1     100.180  93.890 109.260  1.00  0.00     0.091 A 
ATOM     18  N   UNL     1      99.895  94.678 108.195  1.00  0.00    -0.226 NA
ATOM     19  C   UNL     1     100.294  92.519 109.198  1.00  0.00     0.031 A 
ATOM     20  C   UNL     1      99.705  94.111 106.997  1.00  0.00     0.159 A 
ATOM     21  C   UNL     1     100.099  91.925 107.963  1.00  0.00     0.014 A 
ATOM     22  N   UNL     1      99.422  94.891 105.944  1.00  0.00    -0.237 NA
ATOM     23  C   UNL     1      99.801  92.717 106.844  1.00  0.00     0.019 A 
ATOM     24  C   UNL     1      99.230  94.320 104.732  1.00  0.00     0.113 A 
ATOM     25  C   UNL     1      99.598  92.151 105.577  1.00  0.00     0.013 A 
ATOM     26  C   UNL     1      99.306  92.965 104.495  1.00  0.00     0.021 A 
ENDBRANCH   3  17
TORSDOF 2
ENDMDL
MODEL 12
REMARK VINA RESULT:      -6.4     11.079     14.323
REMARK SMILES C1=Nc2nc(-c3cccc(-c4ccc5cccnc5n4)n3)ccc2CC1
REMARK SMILES IDX 21 1 6 2 10 3 7 4 9 5 8 6 5 7 4 8 3 9 2 10 24 11 22 12 1 13
REMARK SMILES IDX 25 14 23 15 26 16 11 17 20 18 12 19 19 20 13 21 18 22 14 23
REMARK SMILES IDX 17 24 15 25 16 26
REMARK H PARENT
ROOT
ATOM      1  N   UNL     1     101.529  95.628 112.283  1.00  0.00    -0.245 NA
ATOM      2  C   UNL     1     100.289  96.115 112.511  1.00  0.00     0.089 A 
ATOM      3  C   UNL     1     102.410  95.724 113.304  1.00  0.00     0.089 A 
ATOM      4  C   UNL     1      99.889  96.691 113.706  1.00  0.00     0.031 A 
ATOM      5  C   UNL     1     102.110  96.283 114.536  1.00  0.00     0.031 A 
ATOM      6  C   UNL     1     100.823  96.774 114.733  1.00  0.00     0.005 A 
ENDROOT
BRANCH   2   7
ATOM      7  C   UNL     1      99.373  95.997 111.401  1.00  0.00     0.091 A 
ATOM      8  N   UNL     1      99.955  95.706 110.215  1.00  0.00    -0.227 NA
ATOM      9  C   UNL     1      99.138  95.588 109.141  1.00  0.00     0.155 A 
ATOM     10  N   UNL     1      99.784  95.264 107.931  1.00  0.00    -0.241 NA
ATOM     11  C   UNL     1      97.754  95.755 109.219  1.00  0.00    -0.003 A 
ATOM     12  C   UNL     1      98.012  96.171 111.576  1.00  0.00     0.031 A 
ATOM     13  C   UNL     1      99.117  95.402 106.828  1.00  0.00     0.086 C 
ATOM     14  C   UNL     1      96.914  95.559 107.993  1.00  0.00     0.045 C 
ATOM     15  C   UNL     1      97.192  96.040 110.463  1.00  0.00     0.010 A 
ATOM     16  C   UNL     1      97.707  95.924 106.748  1.00  0.00     0.053 C 
ENDBRANCH   2   7
BRANCH   3  17
ATOM     17  C   UNL     1     103.723  95.195 113.027  1.00  0.00     0.091 A 
ATOM     18  N   UNL     1     104.444  94.860 114.124  1.00  0.00    -0.226 NA
ATOM     19  C   UNL     1     104.176  95.055 111.734  1.00  0.00     0.031 A 
ATOM     20  C   UNL     1     105.676  94.360 113.968  1.00  0.00     0.159 A 
ATOM     21  C   UNL     1     105.448  94.539 111.563  1.00  0.00     0.014 A 
ATOM     22  N   UNL     1     106.389  94.029 115.054  1.00  0.00    -0.237 NA
ATOM     23  C   UNL     1     106.217  94.184 112.682  1.00  0.00     0.019 A 
ATOM     24  C   UNL     1     107.635  93.524 114.898  1.00  0.00     0.113 A 
ATOM     25  C   UNL     1     107.509  93.658 112.548  1.00  0.00     0.013 A 
ATOM     26  C   UNL     1     108.238  93.319 113.676  1.00  0.00     0.021 A 
ENDBRANCH   3  17
TORSDOF 2
ENDMDL
MODEL 13
REMARK VINA RESULT:      -6.4     10.507     13.489
REMARK SMILES C1=Nc2nc(-c3cccc(-c4ccc5cccnc5n4)n3)ccc2CC1
REMARK SMILES IDX 21 1 6 2 10 3 7 4 9 5 8 6 5 7 4 8 3 9 2 10 24 11 22 12 1 13
REMARK SMILES IDX 25 14 23 15 26 16 11 17 20 18 12 19 19 20 13 21 18 22 14 23
REMARK SMILES IDX 17 24 15 25 16 26
REMARK H PARENT
ROOT
ATOM      1  N   UNL     1     102.887  96.939 115.186  1.00  0.00    -0.245 NA
ATOM      2  C   UNL     1     104.144  96.876 115.681  1.00  0.00     0.089 A 
ATOM      3  C   UNL     1     102.015  97.724 115.857  1.00  0.00     0.089 A 
ATOM      4  C   UNL     1     104.568  97.558 116.811  1.00  0.00     0.031 A 
ATOM      5  C   UNL     1     102.338  98.445 116.996  1.00  0.00     0.031 A 
ATOM      6  C   UNL     1     103.642  98.355 117.475  1.00  0.00     0.005 A 
ENDROOT
BRANCH   2   7
ATOM      7  C   UNL     1     105.050  96.030 114.942  1.00  0.00     0.091 A 
ATOM      8  N   UNL     1     105.161  96.330 113.627  1.00  0.00    -0.227 NA
ATOM      9  C   UNL     1     105.997  95.562 112.889  1.00  0.00     0.155 A 
ATOM     10  N   UNL     1     106.097  95.922 111.531  1.00  0.00    -0.241 NA
ATOM     11  C   UNL     1     106.725  94.499 113.428  1.00  0.00    -0.003 A 
ATOM     12  C   UNL     1     105.738  95.004 115.564  1.00  0.00     0.031 A 
ATOM     13  C   UNL     1     106.654  95.081 110.716  1.00  0.00     0.086 C 
ATOM     14  C   UNL     1     107.667  93.728 112.553  1.00  0.00     0.045 C 
ATOM     15  C   UNL     1     106.595  94.232 114.790  1.00  0.00     0.010 A 
ATOM     16  C   UNL     1     107.169  93.725 111.117  1.00  0.00     0.053 C 
ENDBRANCH   2   7
BRANCH   3  17
ATOM     17  C   UNL     1     100.684  97.768 115.302  1.00  0.00     0.091 A 
ATOM     18  N   UNL     1     100.475  96.932 114.257  1.00  0.00    -0.226 NA
ATOM     19  C   UNL     1      99.725  98.609 115.822  1.00  0.00     0.031 A 
ATOM     20  C   UNL     1      99.269  96.904 113.675  1.00  0.00     0.159 A 
ATOM     21  C   UNL     1      98.476  98.586 115.226  1.00  0.00     0.014 A 
ATOM     22  N   UNL     1      99.064  96.076 112.641  1.00  0.00    -0.237 NA
ATOM     23  C   UNL     1      98.233  97.730 114.142  1.00  0.00     0.019 A 
ATOM     24  C   UNL     1      97.846  96.045 112.052  1.00  0.00     0.113 A 
ATOM     25  C   UNL     1      96.980  97.678 113.514  1.00  0.00     0.013 A 
ATOM     26  C   UNL     1      96.777  96.821 112.446  1.00  0.00     0.021 A 
ENDBRANCH   3  17
TORSDOF 2
ENDMDL
MODEL 14
REMARK VINA RESULT:      -6.4     11.374     12.925
REMARK SMILES C1=Nc2nc(-c3cccc(-c4ccc5cccnc5n4)n3)ccc2CC1
REMARK SMILES IDX 21 1 6 2 10 3 7 4 9 5 8 6 5 7 4 8 3 9 2 10 24 11 22 12 1 13
REMARK SMILES IDX 25 14 23 15 26 16 11 17 20 18 12 19 19 20 13 21 18 22 14 23
REMARK SMILES IDX 17 24 15 25 16 26
REMARK H PARENT
ROOT
ATOM      1  N   UNL     1      99.672  94.768 107.906  1.00  0.00    -0.245 NA
ATOM      2  C   UNL     1      98.898  95.316 108.871  1.00  0.00     0.089 A 
ATOM      3  C   UNL     1      99.160  94.765 106.655  1.00  0.00     0.089 A 
ATOM      4  C   UNL     1      97.643  95.858 108.644  1.00  0.00     0.031 A 
ATOM      5  C   UNL     1      97.917  95.280 106.325  1.00  0.00     0.031 A 
ATOM      6  C   UNL     1      97.150  95.835 107.344  1.00  0.00     0.005 A 
ENDROOT
BRANCH   2   7
ATOM      7  C   UNL     1      99.473  95.303 110.195  1.00  0.00     0.091 A 
ATOM      8  N   UNL     1     100.477  96.189 110.386  1.00  0.00    -0.227 NA
ATOM      9  C   UNL     1     101.052  96.214 111.612  1.00  0.00     0.155 A 
ATOM     10  N   UNL     1     102.078  97.165 111.772  1.00  0.00    -0.241 NA
ATOM     11  C   UNL     1     100.653  95.374 112.654  1.00  0.00    -0.003 A 
ATOM     12  C   UNL     1      99.004  94.440 111.169  1.00  0.00     0.031 A 
ATOM     13  C   UNL     1     102.849  97.064 112.810  1.00  0.00     0.086 C 
ATOM     14  C   UNL     1     101.307  95.497 113.996  1.00  0.00     0.045 C 
ATOM     15  C   UNL     1      99.604  94.484 112.421  1.00  0.00     0.010 A 
ATOM     16  C   UNL     1     102.744  95.971 113.840  1.00  0.00     0.053 C 
ENDBRANCH   2   7
BRANCH   3  17
ATOM     17  C   UNL     1     100.011  94.174 105.651  1.00  0.00     0.091 A 
ATOM     18  N   UNL     1      99.415  93.964 104.452  1.00  0.00    -0.226 NA
ATOM     19  C   UNL     1     101.324  93.860 105.926  1.00  0.00     0.031 A 
ATOM     20  C   UNL     1     100.126  93.419 103.457  1.00  0.00     0.159 A 
ATOM     21  C   UNL     1     102.065  93.296 104.902  1.00  0.00     0.014 A 
ATOM     22  N   UNL     1      99.535  93.212 102.271  1.00  0.00    -0.237 NA
ATOM     23  C   UNL     1     101.473  93.068 103.652  1.00  0.00     0.019 A 
ATOM     24  C   UNL     1     100.252  92.661 101.264  1.00  0.00     0.113 A 
ATOM     25  C   UNL     1     102.192  92.499 102.591  1.00  0.00     0.013 A 
ATOM     26  C   UNL     1     101.574  92.289 101.370  1.00  0.00     0.021 A 
ENDBRANCH   3  17
TORSDOF 2
ENDMDL
MODEL 15
REMARK VINA RESULT:      -6.4     10.904     13.760
REMARK SMILES C1=Nc2nc(-c3cccc(-c4ccc5cccnc5n4)n3)ccc2CC1
REMARK SMILES IDX 21 1 6 2 10 3 7 4 9 5 8 6 5 7 4 8 3 9 2 10 24 11 22 12 1 13
REMARK SMILES IDX 25 14 23 15 26 16 11 17 20 18 12 19 19 20 13 21 18 22 14 23
REMARK SMILES IDX 17 24 15 25 16 26
REMARK H PARENT
ROOT
ATOM      1  N   UNL     1     101.793  96.167 113.678  1.00  0.00    -0.245 NA
ATOM      2  C   UNL     1     100.606  96.794 113.846  1.00  0.00     0.089 A 
ATOM      3  C   UNL     1     102.747  96.432 114.599  1.00  0.00     0.089 A 
ATOM      4  C   UNL     1     100.329  97.667 114.885  1.00  0.00     0.031 A 
ATOM      5  C   UNL     1     102.571  97.290 115.673  1.00  0.00     0.031 A 
ATOM      6  C   UNL     1     101.336  97.915 115.811  1.00  0.00     0.005 A 
ENDROOT
BRANCH   2   7
ATOM      7  C   UNL     1      99.610  96.490 112.846  1.00  0.00     0.091 A 
ATOM      8  N   UNL     1     100.106  96.054 111.665  1.00  0.00    -0.227 NA
ATOM      9  C   UNL     1      99.211  95.759 110.693  1.00  0.00     0.155 A 
ATOM     10  N   UNL     1      99.769  95.290 109.488  1.00  0.00    -0.241 NA
ATOM     11  C   UNL     1      97.831  95.888 110.867  1.00  0.00    -0.003 A 
ATOM     12  C   UNL     1      98.261  96.640 113.113  1.00  0.00     0.031 A 
ATOM     13  C   UNL     1      99.010  95.249 108.438  1.00  0.00     0.086 C 
ATOM     14  C   UNL     1      96.904  95.493 109.758  1.00  0.00     0.045 C 
ATOM     15  C   UNL     1      97.359  96.326 112.104  1.00  0.00     0.010 A 
ATOM     16  C   UNL     1      97.576  95.706 108.410  1.00  0.00     0.053 C 
ENDBRANCH   2   7
BRANCH   3  17
ATOM     17  C   UNL     1     104.000  95.748 114.391  1.00  0.00     0.091 A 
ATOM     18  N   UNL     1     104.290  95.470 113.097  1.00  0.00    -0.226 NA
ATOM     19  C   UNL     1     104.814  95.418 115.452  1.00  0.00     0.031 A 
ATOM     20  C   UNL     1     105.432  94.836 112.805  1.00  0.00     0.159 A 
ATOM     21  C   UNL     1     105.998  94.763 115.159  1.00  0.00     0.014 A 
ATOM     22  N   UNL     1     105.717  94.562 111.525  1.00  0.00    -0.237 NA
ATOM     23  C   UNL     1     106.321  94.463 113.828  1.00  0.00     0.019 A 
ATOM     24  C   UNL     1     106.872  93.921 111.228  1.00  0.00     0.113 A 
ATOM     25  C   UNL     1     107.511  93.800 113.493  1.00  0.00     0.013 A 
ATOM     26  C   UNL     1     107.797  93.521 112.167  1.00  0.00     0.021 A 
ENDBRANCH   3  17
TORSDOF 2
ENDMDL
