MODEL 1
REMARK VINA RESULT:      -8.3      0.000      0.000
REMARK SMILES C=C1C=C(N[C@@H]2CCc3ccccc32)C=CN1/N=C(\C)c1ccccc1
REMARK SMILES IDX 17 1 4 2 3 3 15 4 2 5 16 6 1 7 5 8 6 10 7 11 14 12 8 13 9 14
REMARK SMILES IDX 13 15 10 16 12 17 11 18 18 19 19 20 20 21 21 22 22 23 26 24
REMARK SMILES IDX 23 25 25 26 24 27
REMARK H PARENT 5 9
ROOT
ATOM      1  N   UNL     1      97.421 107.727 107.383  1.00  0.00    -0.241 N 
ATOM      2  C   UNL     1      97.414 107.849 110.213  1.00  0.00     0.038 C 
ATOM      3  C   UNL     1      98.434 107.244 109.565  1.00  0.00     0.053 C 
ATOM      4  C   UNL     1      96.337 108.427 109.418  1.00  0.00     0.046 C 
ATOM      5  C   UNL     1      98.491 107.150 108.098  1.00  0.00     0.059 C 
ATOM      6  C   UNL     1      96.388 108.343 108.080  1.00  0.00     0.115 C 
ATOM      7  C   UNL     1      99.557 106.525 107.563  1.00  0.00     0.039 C 
ENDROOT
BRANCH   2   8
ATOM      8  N   UNL     1      97.333 107.951 111.564  1.00  0.00    -0.378 N 
ATOM      9  H   UNL     1      98.065 108.468 112.042  1.00  0.00     0.161 HD
BRANCH   8  10
ATOM     10  C   UNL     1      96.327 107.288 112.359  1.00  0.00     0.110 C 
ATOM     11  C   UNL     1      95.526 108.305 113.193  1.00  0.00     0.034 C 
ATOM     12  C   UNL     1      96.960 106.466 113.442  1.00  0.00    -0.023 A 
ATOM     13  C   UNL     1      96.272 108.478 114.528  1.00  0.00     0.038 C 
ATOM     14  C   UNL     1      96.922 107.138 114.672  1.00  0.00    -0.043 A 
ATOM     15  C   UNL     1      97.549 105.216 113.333  1.00  0.00     0.006 A 
ATOM     16  C   UNL     1      97.479 106.579 115.809  1.00  0.00     0.004 A 
ATOM     17  C   UNL     1      98.103 104.640 114.477  1.00  0.00     0.000 A 
ATOM     18  C   UNL     1      98.068 105.317 115.707  1.00  0.00     0.000 A 
ENDBRANCH   8  10
ENDBRANCH   2   8
BRANCH   1  19
ATOM     19  N   UNL     1      97.343 107.713 106.021  1.00  0.00    -0.173 NA
ATOM     20  C   UNL     1      96.792 106.680 105.458  1.00  0.00     0.065 C 
ATOM     21  C   UNL     1      96.198 105.506 106.214  1.00  0.00     0.069 C 
BRANCH  20  22
ATOM     22  C   UNL     1      96.737 106.641 103.970  1.00  0.00    -0.003 A 
ATOM     23  C   UNL     1      95.505 106.631 103.317  1.00  0.00     0.010 A 
ATOM     24  C   UNL     1      97.919 106.613 103.230  1.00  0.00     0.010 A 
ATOM     25  C   UNL     1      95.455 106.596 101.923  1.00  0.00     0.001 A 
ATOM     26  C   UNL     1      97.869 106.578 101.837  1.00  0.00     0.001 A 
ATOM     27  C   UNL     1      96.637 106.568 101.183  1.00  0.00     0.000 A 
ENDBRANCH  20  22
ENDBRANCH   1  19
TORSDOF 4
ENDMDL
MODEL 2
REMARK VINA RESULT:      -7.3      1.201      9.525
REMARK SMILES C=C1C=C(N[C@@H]2CCc3ccccc32)C=CN1/N=C(\C)c1ccccc1
REMARK SMILES IDX 17 1 4 2 3 3 15 4 2 5 16 6 1 7 5 8 6 10 7 11 14 12 8 13 9 14
REMARK SMILES IDX 13 15 10 16 12 17 11 18 18 19 19 20 20 21 21 22 22 23 26 24
REMARK SMILES IDX 23 25 25 26 24 27
REMARK H PARENT 5 9
ROOT
ATOM      1  N   UNL     1      97.424 108.382 110.736  1.00  0.00    -0.241 N 
ATOM      2  C   UNL     1      96.893 107.946 107.988  1.00  0.00     0.038 C 
ATOM      3  C   UNL     1      96.097 108.767 108.708  1.00  0.00     0.053 C 
ATOM      4  C   UNL     1      98.015 107.305 108.663  1.00  0.00     0.046 C 
ATOM      5  C   UNL     1      96.324 109.032 110.138  1.00  0.00     0.059 C 
ATOM      6  C   UNL     1      98.223 107.545 109.967  1.00  0.00     0.115 C 
ATOM      7  C   UNL     1      95.466 109.869 110.751  1.00  0.00     0.039 C 
ENDROOT
BRANCH   2   8
ATOM      8  N   UNL     1      96.710 107.682 106.669  1.00  0.00    -0.378 N 
ATOM      9  H   UNL     1      96.337 108.427 106.088  1.00  0.00     0.161 HD
BRANCH   8  10
ATOM     10  C   UNL     1      96.919 106.384 106.074  1.00  0.00     0.110 C 
ATOM     11  C   UNL     1      98.410 105.996 106.111  1.00  0.00     0.034 C 
ATOM     12  C   UNL     1      96.672 106.428 104.596  1.00  0.00    -0.023 A 
ATOM     13  C   UNL     1      99.046 106.540 104.820  1.00  0.00     0.038 C 
ATOM     14  C   UNL     1      97.878 106.509 103.886  1.00  0.00    -0.043 A 
ATOM     15  C   UNL     1      95.456 106.421 103.932  1.00  0.00     0.006 A 
ATOM     16  C   UNL     1      97.890 106.594 102.504  1.00  0.00     0.004 A 
ATOM     17  C   UNL     1      95.459 106.493 102.538  1.00  0.00     0.000 A 
ATOM     18  C   UNL     1      96.668 106.579 101.830  1.00  0.00     0.000 A 
ENDBRANCH   8  10
ENDBRANCH   2   8
BRANCH   1  19
ATOM     19  N   UNL     1      97.752 108.535 112.051  1.00  0.00    -0.173 NA
ATOM     20  C   UNL     1      97.160 107.763 112.915  1.00  0.00     0.065 C 
ATOM     21  C   UNL     1      96.158 106.683 112.554  1.00  0.00     0.069 C 
BRANCH  20  22
ATOM     22  C   UNL     1      97.485 107.950 114.356  1.00  0.00    -0.003 A 
ATOM     23  C   UNL     1      96.993 109.058 115.045  1.00  0.00     0.010 A 
ATOM     24  C   UNL     1      98.283 107.016 115.017  1.00  0.00     0.010 A 
ATOM     25  C   UNL     1      97.297 109.231 116.395  1.00  0.00     0.001 A 
ATOM     26  C   UNL     1      98.587 107.189 116.367  1.00  0.00     0.001 A 
ATOM     27  C   UNL     1      98.095 108.298 117.056  1.00  0.00     0.000 A 
ENDBRANCH  20  22
ENDBRANCH   1  19
TORSDOF 4
ENDMDL
MODEL 3
REMARK VINA RESULT:      -6.1     12.321     14.603
REMARK SMILES C=C1C=C(N[C@@H]2CCc3ccccc32)C=CN1/N=C(\C)c1ccccc1
REMARK SMILES IDX 17 1 4 2 3 3 15 4 2 5 16 6 1 7 5 8 6 10 7 11 14 12 8 13 9 14
REMARK SMILES IDX 13 15 10 16 12 17 11 18 18 19 19 20 20 21 21 22 22 23 26 24
REMARK SMILES IDX 23 25 25 26 24 27
REMARK H PARENT 5 9
ROOT
ATOM      1  N   UNL     1     101.251  94.841 111.561  1.00  0.00    -0.241 N 
ATOM      2  C   UNL     1     102.723  94.040 113.845  1.00  0.00     0.038 C 
ATOM      3  C   UNL     1     102.743  95.331 113.446  1.00  0.00     0.053 C 
ATOM      4  C   UNL     1     101.930  93.092 113.073  1.00  0.00     0.046 C 
ATOM      5  C   UNL     1     101.998  95.805 112.268  1.00  0.00     0.059 C 
ATOM      6  C   UNL     1     101.251  93.522 111.999  1.00  0.00     0.115 C 
ATOM      7  C   UNL     1     102.092  97.114 111.967  1.00  0.00     0.039 C 
ENDROOT
BRANCH   2   8
ATOM      8  N   UNL     1     103.399  93.574 114.926  1.00  0.00    -0.378 N 
ATOM      9  H   UNL     1     103.286  94.073 115.803  1.00  0.00     0.161 HD
BRANCH   8  10
ATOM     10  C   UNL     1     104.337  92.478 114.873  1.00  0.00     0.110 C 
ATOM     11  C   UNL     1     105.027  92.279 116.235  1.00  0.00     0.034 C 
ATOM     12  C   UNL     1     105.511  92.823 114.005  1.00  0.00    -0.023 A 
ATOM     13  C   UNL     1     106.280  93.172 116.238  1.00  0.00     0.038 C 
ATOM     14  C   UNL     1     106.613  93.208 114.780  1.00  0.00    -0.043 A 
ATOM     15  C   UNL     1     105.583  92.815 112.621  1.00  0.00     0.006 A 
ATOM     16  C   UNL     1     107.801  93.602 114.188  1.00  0.00     0.004 A 
ATOM     17  C   UNL     1     106.781  93.198 112.016  1.00  0.00     0.000 A 
ATOM     18  C   UNL     1     107.882  93.589 112.794  1.00  0.00     0.000 A 
ENDBRANCH   8  10
ENDBRANCH   2   8
BRANCH   1  19
ATOM     19  N   UNL     1     100.514  95.138 110.452  1.00  0.00    -0.173 NA
ATOM     20  C   UNL     1      99.252  95.402 110.618  1.00  0.00     0.065 C 
ATOM     21  C   UNL     1      98.553  95.436 111.965  1.00  0.00     0.069 C 
BRANCH  20  22
ATOM     22  C   UNL     1      98.433  95.690 109.408  1.00  0.00    -0.003 A 
ATOM     23  C   UNL     1      98.902  95.327 108.146  1.00  0.00     0.010 A 
ATOM     24  C   UNL     1      97.197  96.323 109.538  1.00  0.00     0.010 A 
ATOM     25  C   UNL     1      98.134  95.597 107.013  1.00  0.00     0.001 A 
ATOM     26  C   UNL     1      96.429  96.593 108.405  1.00  0.00     0.001 A 
ATOM     27  C   UNL     1      96.898  96.230 107.142  1.00  0.00     0.000 A 
ENDBRANCH  20  22
ENDBRANCH   1  19
TORSDOF 4
ENDMDL
MODEL 4
REMARK VINA RESULT:      -6.1     12.218     16.183
REMARK SMILES C=C1C=C(N[C@@H]2CCc3ccccc32)C=CN1/N=C(\C)c1ccccc1
REMARK SMILES IDX 17 1 4 2 3 3 15 4 2 5 16 6 1 7 5 8 6 10 7 11 14 12 8 13 9 14
REMARK SMILES IDX 13 15 10 16 12 17 11 18 18 19 19 20 20 21 21 22 22 23 26 24
REMARK SMILES IDX 23 25 25 26 24 27
REMARK H PARENT 5 9
ROOT
ATOM      1  N   UNL     1     101.892  94.502 112.233  1.00  0.00    -0.241 N 
ATOM      2  C   UNL     1     100.229  94.393 109.942  1.00  0.00     0.038 C 
ATOM      3  C   UNL     1     100.552  95.587 110.487  1.00  0.00     0.053 C 
ATOM      4  C   UNL     1     100.759  93.185 110.563  1.00  0.00     0.046 C 
ATOM      5  C   UNL     1     101.412  95.705 111.676  1.00  0.00     0.059 C 
ATOM      6  C   UNL     1     101.542  93.290 111.647  1.00  0.00     0.115 C 
ATOM      7  C   UNL     1     101.667  96.947 112.130  1.00  0.00     0.039 C 
ENDROOT
BRANCH   2   8
ATOM      8  N   UNL     1      99.440  94.253 108.847  1.00  0.00    -0.378 N 
ATOM      9  H   UNL     1      98.865  93.418 108.785  1.00  0.00     0.161 HD
BRANCH   8  10
ATOM     10  C   UNL     1      99.448  95.168 107.731  1.00  0.00     0.110 C 
ATOM     11  C   UNL     1      98.017  95.608 107.370  1.00  0.00     0.034 C 
ATOM     12  C   UNL     1      99.857  94.468 106.469  1.00  0.00    -0.023 A 
ATOM     13  C   UNL     1      97.476  94.587 106.354  1.00  0.00     0.038 C 
ATOM     14  C   UNL     1      98.740  94.146 105.687  1.00  0.00    -0.043 A 
ATOM     15  C   UNL     1     101.136  94.121 106.061  1.00  0.00     0.006 A 
ATOM     16  C   UNL     1      98.879  93.465 104.490  1.00  0.00     0.004 A 
ATOM     17  C   UNL     1     101.286  93.446 104.849  1.00  0.00     0.000 A 
ATOM     18  C   UNL     1     100.164  93.120 104.069  1.00  0.00     0.000 A 
ENDBRANCH   8  10
ENDBRANCH   2   8
BRANCH   1  19
ATOM     19  N   UNL     1     102.697  94.461 113.334  1.00  0.00    -0.173 NA
ATOM     20  C   UNL     1     103.983  94.473 113.143  1.00  0.00     0.065 C 
ATOM     21  C   UNL     1     104.647  94.567 111.781  1.00  0.00     0.069 C 
BRANCH  20  22
ATOM     22  C   UNL     1     104.868  94.391 114.338  1.00  0.00    -0.003 A 
ATOM     23  C   UNL     1     106.176  93.925 114.207  1.00  0.00     0.010 A 
ATOM     24  C   UNL     1     104.387  94.779 115.588  1.00  0.00     0.010 A 
ATOM     25  C   UNL     1     107.004  93.849 115.327  1.00  0.00     0.001 A 
ATOM     26  C   UNL     1     105.216  94.702 116.708  1.00  0.00     0.001 A 
ATOM     27  C   UNL     1     106.524  94.237 116.578  1.00  0.00     0.000 A 
ENDBRANCH  20  22
ENDBRANCH   1  19
TORSDOF 4
ENDMDL
MODEL 5
REMARK VINA RESULT:      -6.1     11.538     15.260
REMARK SMILES C=C1C=C(N[C@@H]2CCc3ccccc32)C=CN1/N=C(\C)c1ccccc1
REMARK SMILES IDX 17 1 4 2 3 3 15 4 2 5 16 6 1 7 5 8 6 10 7 11 14 12 8 13 9 14
REMARK SMILES IDX 13 15 10 16 12 17 11 18 18 19 19 20 20 21 21 22 22 23 26 24
REMARK SMILES IDX 23 25 25 26 24 27
REMARK H PARENT 5 9
ROOT
ATOM      1  N   UNL     1     101.459  94.712 113.744  1.00  0.00    -0.241 N 
ATOM      2  C   UNL     1     103.713  93.064 113.269  1.00  0.00     0.038 C 
ATOM      3  C   UNL     1     103.072  93.646 112.232  1.00  0.00     0.053 C 
ATOM      4  C   UNL     1     103.214  93.310 114.616  1.00  0.00     0.046 C 
ATOM      5  C   UNL     1     101.896  94.512 112.418  1.00  0.00     0.059 C 
ATOM      6  C   UNL     1     102.142  94.098 114.788  1.00  0.00     0.115 C 
ATOM      7  C   UNL     1     101.340  95.039 111.311  1.00  0.00     0.039 C 
ENDROOT
BRANCH   2   8
ATOM      8  N   UNL     1     104.799  92.262 113.129  1.00  0.00    -0.378 N 
ATOM      9  H   UNL     1     104.643  91.258 113.109  1.00  0.00     0.161 HD
BRANCH   8  10
ATOM     10  C   UNL     1     106.158  92.748 113.109  1.00  0.00     0.110 C 
ATOM     11  C   UNL     1     106.690  92.952 114.540  1.00  0.00     0.034 C 
ATOM     12  C   UNL     1     106.214  94.151 112.581  1.00  0.00    -0.023 A 
ATOM     13  C   UNL     1     106.326  94.389 114.953  1.00  0.00     0.038 C 
ATOM     14  C   UNL     1     106.317  95.079 113.626  1.00  0.00    -0.043 A 
ATOM     15  C   UNL     1     106.154  94.570 111.261  1.00  0.00     0.006 A 
ATOM     16  C   UNL     1     106.352  96.439 113.373  1.00  0.00     0.004 A 
ATOM     17  C   UNL     1     106.201  95.939 110.995  1.00  0.00     0.000 A 
ATOM     18  C   UNL     1     106.299  96.867 112.045  1.00  0.00     0.000 A 
ENDBRANCH   8  10
ENDBRANCH   2   8
BRANCH   1  19
ATOM     19  N   UNL     1     100.383  95.488 114.063  1.00  0.00    -0.173 NA
ATOM     20  C   UNL     1     100.610  96.723 114.403  1.00  0.00     0.065 C 
ATOM     21  C   UNL     1     101.983  97.366 114.434  1.00  0.00     0.069 C 
BRANCH  20  22
ATOM     22  C   UNL     1      99.444  97.566 114.790  1.00  0.00    -0.003 A 
ATOM     23  C   UNL     1      99.638  98.713 115.558  1.00  0.00     0.010 A 
ATOM     24  C   UNL     1      98.159  97.206 114.384  1.00  0.00     0.010 A 
ATOM     25  C   UNL     1      98.546  99.503 115.919  1.00  0.00     0.001 A 
ATOM     26  C   UNL     1      97.067  97.995 114.745  1.00  0.00     0.001 A 
ATOM     27  C   UNL     1      97.260  99.144 115.514  1.00  0.00     0.000 A 
ENDBRANCH  20  22
ENDBRANCH   1  19
TORSDOF 4
ENDMDL
MODEL 6
REMARK VINA RESULT:      -6.0     11.584     15.316
REMARK SMILES C=C1C=C(N[C@@H]2CCc3ccccc32)C=CN1/N=C(\C)c1ccccc1
REMARK SMILES IDX 17 1 4 2 3 3 15 4 2 5 16 6 1 7 5 8 6 10 7 11 14 12 8 13 9 14
REMARK SMILES IDX 13 15 10 16 12 17 11 18 18 19 19 20 20 21 21 22 22 23 26 24
REMARK SMILES IDX 23 25 25 26 24 27
REMARK H PARENT 5 9
ROOT
ATOM      1  N   UNL     1     101.489  94.489 113.784  1.00  0.00    -0.241 N 
ATOM      2  C   UNL     1     103.830  92.979 113.267  1.00  0.00     0.038 C 
ATOM      3  C   UNL     1     103.281  92.973 114.502  1.00  0.00     0.053 C 
ATOM      4  C   UNL     1     103.186  93.774 112.229  1.00  0.00     0.046 C 
ATOM      5  C   UNL     1     102.066  93.738 114.829  1.00  0.00     0.059 C 
ATOM      6  C   UNL     1     102.079  94.472 112.525  1.00  0.00     0.115 C 
ATOM      7  C   UNL     1     101.610  93.655 116.093  1.00  0.00     0.039 C 
ENDROOT
BRANCH   2   8
ATOM      8  N   UNL     1     104.948  92.284 112.936  1.00  0.00    -0.378 N 
ATOM      9  H   UNL     1     104.840  91.302 112.704  1.00  0.00     0.161 HD
BRANCH   8  10
ATOM     10  C   UNL     1     106.280  92.837 112.992  1.00  0.00     0.110 C 
ATOM     11  C   UNL     1     106.742  93.013 114.451  1.00  0.00     0.034 C 
ATOM     12  C   UNL     1     106.288  94.260 112.517  1.00  0.00    -0.023 A 
ATOM     13  C   UNL     1     106.289  94.413 114.899  1.00  0.00     0.038 C 
ATOM     14  C   UNL     1     106.301  95.151 113.597  1.00  0.00    -0.043 A 
ATOM     15  C   UNL     1     106.262  94.724 111.211  1.00  0.00     0.006 A 
ATOM     16  C   UNL     1     106.277  96.521 113.395  1.00  0.00     0.004 A 
ATOM     17  C   UNL     1     106.252  96.103 110.997  1.00  0.00     0.000 A 
ATOM     18  C   UNL     1     106.259  96.995 112.082  1.00  0.00     0.000 A 
ENDBRANCH   8  10
ENDBRANCH   2   8
BRANCH   1  19
ATOM     19  N   UNL     1     100.365  95.244 113.944  1.00  0.00    -0.173 NA
ATOM     20  C   UNL     1     100.518  96.503 114.230  1.00  0.00     0.065 C 
ATOM     21  C   UNL     1     101.861  97.195 114.361  1.00  0.00     0.069 C 
BRANCH  20  22
ATOM     22  C   UNL     1      99.294  97.325 114.443  1.00  0.00    -0.003 A 
ATOM     23  C   UNL     1      98.123  97.025 113.749  1.00  0.00     0.010 A 
ATOM     24  C   UNL     1      99.321  98.395 115.337  1.00  0.00     0.010 A 
ATOM     25  C   UNL     1      96.977  97.795 113.950  1.00  0.00     0.001 A 
ATOM     26  C   UNL     1      98.175  99.165 115.538  1.00  0.00     0.001 A 
ATOM     27  C   UNL     1      97.003  98.866 114.844  1.00  0.00     0.000 A 
ENDBRANCH  20  22
ENDBRANCH   1  19
TORSDOF 4
ENDMDL
MODEL 7
REMARK VINA RESULT:      -6.0     12.346     15.294
REMARK SMILES C=C1C=C(N[C@@H]2CCc3ccccc32)C=CN1/N=C(\C)c1ccccc1
REMARK SMILES IDX 17 1 4 2 3 3 15 4 2 5 16 6 1 7 5 8 6 10 7 11 14 12 8 13 9 14
REMARK SMILES IDX 13 15 10 16 12 17 11 18 18 19 19 20 20 21 21 22 22 23 26 24
REMARK SMILES IDX 23 25 25 26 24 27
REMARK H PARENT 5 9
ROOT
ATOM      1  N   UNL     1     101.666  93.672 113.387  1.00  0.00    -0.241 N 
ATOM      2  C   UNL     1     104.193  92.754 114.278  1.00  0.00     0.038 C 
ATOM      3  C   UNL     1     103.384  93.432 115.122  1.00  0.00     0.053 C 
ATOM      4  C   UNL     1     103.727  92.516 112.918  1.00  0.00     0.046 C 
ATOM      5  C   UNL     1     102.060  93.932 114.715  1.00  0.00     0.059 C 
ATOM      6  C   UNL     1     102.522  92.972 112.545  1.00  0.00     0.115 C 
ATOM      7  C   UNL     1     101.341  94.593 115.643  1.00  0.00     0.039 C 
ENDROOT
BRANCH   2   8
ATOM      8  N   UNL     1     105.417  92.281 114.624  1.00  0.00    -0.378 N 
ATOM      9  H   UNL     1     105.461  91.364 115.060  1.00  0.00     0.161 HD
BRANCH   8  10
ATOM     10  C   UNL     1     106.636  93.043 114.499  1.00  0.00     0.110 C 
ATOM     11  C   UNL     1     106.709  94.143 115.576  1.00  0.00     0.034 C 
ATOM     12  C   UNL     1     106.622  93.870 113.248  1.00  0.00    -0.023 A 
ATOM     13  C   UNL     1     106.029  95.391 114.989  1.00  0.00     0.038 C 
ATOM     14  C   UNL     1     106.285  95.201 113.527  1.00  0.00    -0.043 A 
ATOM     15  C   UNL     1     106.870  93.456 111.948  1.00  0.00     0.006 A 
ATOM     16  C   UNL     1     106.180  96.139 112.515  1.00  0.00     0.004 A 
ATOM     17  C   UNL     1     106.779  94.399 110.923  1.00  0.00     0.000 A 
ATOM     18  C   UNL     1     106.437  95.731 111.204  1.00  0.00     0.000 A 
ENDBRANCH   8  10
ENDBRANCH   2   8
BRANCH   1  19
ATOM     19  N   UNL     1     100.468  94.077 112.874  1.00  0.00    -0.173 NA
ATOM     20  C   UNL     1     100.441  95.197 112.215  1.00  0.00     0.065 C 
ATOM     21  C   UNL     1     101.657  96.064 111.948  1.00  0.00     0.069 C 
BRANCH  20  22
ATOM     22  C   UNL     1      99.130  95.665 111.685  1.00  0.00    -0.003 A 
ATOM     23  C   UNL     1      98.914  95.720 110.309  1.00  0.00     0.010 A 
ATOM     24  C   UNL     1      98.119  96.047 112.566  1.00  0.00     0.010 A 
ATOM     25  C   UNL     1      97.685  96.157 109.813  1.00  0.00     0.001 A 
ATOM     26  C   UNL     1      96.890  96.484 112.070  1.00  0.00     0.001 A 
ATOM     27  C   UNL     1      96.673  96.540 110.694  1.00  0.00     0.000 A 
ENDBRANCH  20  22
ENDBRANCH   1  19
TORSDOF 4
ENDMDL
MODEL 8
REMARK VINA RESULT:      -5.9     12.139     16.037
REMARK SMILES C=C1C=C(N[C@@H]2CCc3ccccc32)C=CN1/N=C(\C)c1ccccc1
REMARK SMILES IDX 17 1 4 2 3 3 15 4 2 5 16 6 1 7 5 8 6 10 7 11 14 12 8 13 9 14
REMARK SMILES IDX 13 15 10 16 12 17 11 18 18 19 19 20 20 21 21 22 22 23 26 24
REMARK SMILES IDX 23 25 25 26 24 27
REMARK H PARENT 5 9
ROOT
ATOM      1  N   UNL     1     101.332  94.664 111.999  1.00  0.00    -0.241 N 
ATOM      2  C   UNL     1     100.002  94.325 109.520  1.00  0.00     0.038 C 
ATOM      3  C   UNL     1     100.367  93.244 110.245  1.00  0.00     0.053 C 
ATOM      4  C   UNL     1     100.310  95.648 110.051  1.00  0.00     0.046 C 
ATOM      5  C   UNL     1     101.060  93.359 111.539  1.00  0.00     0.059 C 
ATOM      6  C   UNL     1     100.942  95.754 111.230  1.00  0.00     0.115 C 
ATOM      7  C   UNL     1     101.373  92.212 112.172  1.00  0.00     0.039 C 
ENDROOT
BRANCH   2   8
ATOM      8  N   UNL     1      99.363  94.251 108.326  1.00  0.00    -0.378 N 
ATOM      9  H   UNL     1      98.718  93.480 108.184  1.00  0.00     0.161 HD
BRANCH   8  10
ATOM     10  C   UNL     1      99.623  95.144 107.221  1.00  0.00     0.110 C 
ATOM     11  C   UNL     1      98.308  95.692 106.636  1.00  0.00     0.034 C 
ATOM     12  C   UNL     1     100.168  94.391 106.044  1.00  0.00    -0.023 A 
ATOM     13  C   UNL     1      97.853  94.701 105.550  1.00  0.00     0.038 C 
ATOM     14  C   UNL     1      99.166  94.147 105.095  1.00  0.00    -0.043 A 
ATOM     15  C   UNL     1     101.462  93.935 105.845  1.00  0.00     0.006 A 
ATOM     16  C   UNL     1      99.435  93.437 103.937  1.00  0.00     0.004 A 
ATOM     17  C   UNL     1     101.745  93.229 104.675  1.00  0.00     0.000 A 
ATOM     18  C   UNL     1     100.739  92.982 103.728  1.00  0.00     0.000 A 
ENDBRANCH   8  10
ENDBRANCH   2   8
BRANCH   1  19
ATOM     19  N   UNL     1     101.967  94.919 113.179  1.00  0.00    -0.173 NA
ATOM     20  C   UNL     1     103.267  94.958 113.169  1.00  0.00     0.065 C 
ATOM     21  C   UNL     1     104.120  94.776 111.928  1.00  0.00     0.069 C 
BRANCH  20  22
ATOM     22  C   UNL     1     103.969  95.199 114.460  1.00  0.00    -0.003 A 
ATOM     23  C   UNL     1     104.466  96.467 114.758  1.00  0.00     0.010 A 
ATOM     24  C   UNL     1     104.128  94.155 115.371  1.00  0.00     0.010 A 
ATOM     25  C   UNL     1     105.123  96.692 115.968  1.00  0.00     0.001 A 
ATOM     26  C   UNL     1     104.785  94.380 116.581  1.00  0.00     0.001 A 
ATOM     27  C   UNL     1     105.283  95.648 116.880  1.00  0.00     0.000 A 
ENDBRANCH  20  22
ENDBRANCH   1  19
TORSDOF 4
ENDMDL
MODEL 9
REMARK VINA RESULT:      -5.9     12.151     14.438
REMARK SMILES C=C1C=C(N[C@@H]2CCc3ccccc32)C=CN1/N=C(\C)c1ccccc1
REMARK SMILES IDX 17 1 4 2 3 3 15 4 2 5 16 6 1 7 5 8 6 10 7 11 14 12 8 13 9 14
REMARK SMILES IDX 13 15 10 16 12 17 11 18 18 19 19 20 20 21 21 22 22 23 26 24
REMARK SMILES IDX 23 25 25 26 24 27
REMARK H PARENT 5 9
ROOT
ATOM      1  N   UNL     1     100.505  95.422 112.084  1.00  0.00    -0.241 N 
ATOM      2  C   UNL     1     102.511  94.691 113.946  1.00  0.00     0.038 C 
ATOM      3  C   UNL     1     101.249  94.231 114.097  1.00  0.00     0.053 C 
ATOM      4  C   UNL     1     102.798  95.561 112.811  1.00  0.00     0.046 C 
ATOM      5  C   UNL     1     100.166  94.577 113.161  1.00  0.00     0.059 C 
ATOM      6  C   UNL     1     101.812  95.877 111.958  1.00  0.00     0.115 C 
ATOM      7  C   UNL     1      98.949  94.058 113.411  1.00  0.00     0.039 C 
ENDROOT
BRANCH   2   8
ATOM      8  N   UNL     1     103.529  94.391 114.791  1.00  0.00    -0.378 N 
ATOM      9  H   UNL     1     103.846  95.118 115.424  1.00  0.00     0.161 HD
BRANCH   8  10
ATOM     10  C   UNL     1     104.245  93.137 114.769  1.00  0.00     0.110 C 
ATOM     11  C   UNL     1     104.892  92.849 116.137  1.00  0.00     0.034 C 
ATOM     12  C   UNL     1     105.459  93.231 113.893  1.00  0.00    -0.023 A 
ATOM     13  C   UNL     1     106.290  93.492 116.115  1.00  0.00     0.038 C 
ATOM     14  C   UNL     1     106.617  93.424 114.657  1.00  0.00    -0.043 A 
ATOM     15  C   UNL     1     105.520  93.171 112.510  1.00  0.00     0.006 A 
ATOM     16  C   UNL     1     107.855  93.571 114.054  1.00  0.00     0.004 A 
ATOM     17  C   UNL     1     106.766  93.306 111.894  1.00  0.00     0.000 A 
ATOM     18  C   UNL     1     107.925  93.504 112.661  1.00  0.00     0.000 A 
ENDBRANCH   8  10
ENDBRANCH   2   8
BRANCH   1  19
ATOM     19  N   UNL     1      99.603  95.823 111.143  1.00  0.00    -0.173 NA
ATOM     20  C   UNL     1      99.453  95.073 110.091  1.00  0.00     0.065 C 
ATOM     21  C   UNL     1     100.186  93.765 109.860  1.00  0.00     0.069 C 
BRANCH  20  22
ATOM     22  C   UNL     1      98.498  95.525 109.041  1.00  0.00    -0.003 A 
ATOM     23  C   UNL     1      98.762  95.259 107.698  1.00  0.00     0.010 A 
ATOM     24  C   UNL     1      97.341  96.214 109.402  1.00  0.00     0.010 A 
ATOM     25  C   UNL     1      97.866  95.681 106.715  1.00  0.00     0.001 A 
ATOM     26  C   UNL     1      96.446  96.637 108.419  1.00  0.00     0.001 A 
ATOM     27  C   UNL     1      96.709  96.371 107.075  1.00  0.00     0.000 A 
ENDBRANCH  20  22
ENDBRANCH   1  19
TORSDOF 4
ENDMDL
MODEL 10
REMARK VINA RESULT:      -5.8     11.646     14.714
REMARK SMILES C=C1C=C(N[C@@H]2CCc3ccccc32)C=CN1/N=C(\C)c1ccccc1
REMARK SMILES IDX 17 1 4 2 3 3 15 4 2 5 16 6 1 7 5 8 6 10 7 11 14 12 8 13 9 14
REMARK SMILES IDX 13 15 10 16 12 17 11 18 18 19 19 20 20 21 21 22 22 23 26 24
REMARK SMILES IDX 23 25 25 26 24 27
REMARK H PARENT 5 9
ROOT
ATOM      1  N   UNL     1     101.626  95.372 112.792  1.00  0.00    -0.241 N 
ATOM      2  C   UNL     1     104.288  94.670 112.122  1.00  0.00     0.038 C 
ATOM      3  C   UNL     1     103.416  93.716 112.517  1.00  0.00     0.053 C 
ATOM      4  C   UNL     1     103.818  96.048 112.053  1.00  0.00     0.046 C 
ATOM      5  C   UNL     1     102.021  94.021 112.877  1.00  0.00     0.059 C 
ATOM      6  C   UNL     1     102.548  96.329 112.382  1.00  0.00     0.115 C 
ATOM      7  C   UNL     1     101.244  92.989 113.254  1.00  0.00     0.039 C 
ENDROOT
BRANCH   2   8
ATOM      8  N   UNL     1     105.578  94.419 111.784  1.00  0.00    -0.378 N 
ATOM      9  H   UNL     1     105.746  93.828 110.976  1.00  0.00     0.161 HD
BRANCH   8  10
ATOM     10  C   UNL     1     106.710  94.861 112.562  1.00  0.00     0.110 C 
ATOM     11  C   UNL     1     107.793  93.768 112.626  1.00  0.00     0.034 C 
ATOM     12  C   UNL     1     106.346  94.987 114.011  1.00  0.00    -0.023 A 
ATOM     13  C   UNL     1     107.471  92.889 113.847  1.00  0.00     0.038 C 
ATOM     14  C   UNL     1     106.783  93.873 114.739  1.00  0.00    -0.043 A 
ATOM     15  C   UNL     1     105.651  96.014 114.631  1.00  0.00     0.006 A 
ATOM     16  C   UNL     1     106.527  93.759 116.095  1.00  0.00     0.004 A 
ATOM     17  C   UNL     1     105.399  95.914 116.000  1.00  0.00     0.000 A 
ATOM     18  C   UNL     1     105.834  94.794 116.727  1.00  0.00     0.000 A 
ENDBRANCH   8  10
ENDBRANCH   2   8
BRANCH   1  19
ATOM     19  N   UNL     1     100.367  95.799 113.096  1.00  0.00    -0.173 NA
ATOM     20  C   UNL     1      99.533  95.969 112.112  1.00  0.00     0.065 C 
ATOM     21  C   UNL     1      99.857  95.691 110.656  1.00  0.00     0.069 C 
BRANCH  20  22
ATOM     22  C   UNL     1      98.168  96.471 112.432  1.00  0.00    -0.003 A 
ATOM     23  C   UNL     1      97.925  97.101 113.653  1.00  0.00     0.010 A 
ATOM     24  C   UNL     1      97.133  96.310 111.512  1.00  0.00     0.010 A 
ATOM     25  C   UNL     1      96.646  97.571 113.952  1.00  0.00     0.001 A 
ATOM     26  C   UNL     1      95.854  96.781 111.810  1.00  0.00     0.001 A 
ATOM     27  C   UNL     1      95.610  97.411 113.031  1.00  0.00     0.000 A 
ENDBRANCH  20  22
ENDBRANCH   1  19
TORSDOF 4
ENDMDL
MODEL 11
REMARK VINA RESULT:      -5.8     14.076     16.714
REMARK SMILES C=C1C=C(N[C@@H]2CCc3ccccc32)C=CN1/N=C(\C)c1ccccc1
REMARK SMILES IDX 17 1 4 2 3 3 15 4 2 5 16 6 1 7 5 8 6 10 7 11 14 12 8 13 9 14
REMARK SMILES IDX 13 15 10 16 12 17 11 18 18 19 19 20 20 21 21 22 22 23 26 24
REMARK SMILES IDX 23 25 25 26 24 27
REMARK H PARENT 5 9
ROOT
ATOM      1  N   UNL     1     102.118  92.946 113.881  1.00  0.00    -0.241 N 
ATOM      2  C   UNL     1     104.737  92.678 112.833  1.00  0.00     0.038 C 
ATOM      3  C   UNL     1     103.855  93.517 112.244  1.00  0.00     0.053 C 
ATOM      4  C   UNL     1     104.300  91.930 114.006  1.00  0.00     0.046 C 
ATOM      5  C   UNL     1     102.483  93.697 112.745  1.00  0.00     0.059 C 
ATOM      6  C   UNL     1     103.049  92.092 114.463  1.00  0.00     0.115 C 
ATOM      7  C   UNL     1     101.694  94.561 112.078  1.00  0.00     0.039 C 
ENDROOT
BRANCH   2   8
ATOM      8  N   UNL     1     106.007  92.491 112.395  1.00  0.00    -0.378 N 
ATOM      9  H   UNL     1     106.220  91.616 111.925  1.00  0.00     0.161 HD
BRANCH   8  10
ATOM     10  C   UNL     1     107.086  93.416 112.648  1.00  0.00     0.110 C 
ATOM     11  C   UNL     1     107.471  93.417 114.140  1.00  0.00     0.034 C 
ATOM     12  C   UNL     1     106.627  94.833 112.471  1.00  0.00    -0.023 A 
ATOM     13  C   UNL     1     106.588  94.471 114.830  1.00  0.00     0.038 C 
ATOM     14  C   UNL     1     106.352  95.432 113.707  1.00  0.00    -0.043 A 
ATOM     15  C   UNL     1     106.445  95.530 111.287  1.00  0.00     0.006 A 
ATOM     16  C   UNL     1     105.881  96.731 113.784  1.00  0.00     0.004 A 
ATOM     17  C   UNL     1     105.983  96.846 111.355  1.00  0.00     0.000 A 
ATOM     18  C   UNL     1     105.704  97.442 112.595  1.00  0.00     0.000 A 
ENDBRANCH   8  10
ENDBRANCH   2   8
BRANCH   1  19
ATOM     19  N   UNL     1     100.881  93.013 114.451  1.00  0.00    -0.173 NA
ATOM     20  C   UNL     1     100.709  93.857 115.425  1.00  0.00     0.065 C 
ATOM     21  C   UNL     1     101.781  94.797 115.943  1.00  0.00     0.069 C 
BRANCH  20  22
ATOM     22  C   UNL     1      99.371  93.909 116.077  1.00  0.00    -0.003 A 
ATOM     23  C   UNL     1      98.628  92.740 116.237  1.00  0.00     0.010 A 
ATOM     24  C   UNL     1      98.862  95.127 116.527  1.00  0.00     0.010 A 
ATOM     25  C   UNL     1      97.375  92.789 116.849  1.00  0.00     0.001 A 
ATOM     26  C   UNL     1      97.610  95.176 117.139  1.00  0.00     0.001 A 
ATOM     27  C   UNL     1      96.865  94.007 117.299  1.00  0.00     0.000 A 
ENDBRANCH  20  22
ENDBRANCH   1  19
TORSDOF 4
ENDMDL
MODEL 12
REMARK VINA RESULT:      -5.8     12.102     15.450
REMARK SMILES C=C1C=C(N[C@@H]2CCc3ccccc32)C=CN1/N=C(\C)c1ccccc1
REMARK SMILES IDX 17 1 4 2 3 3 15 4 2 5 16 6 1 7 5 8 6 10 7 11 14 12 8 13 9 14
REMARK SMILES IDX 13 15 10 16 12 17 11 18 18 19 19 20 20 21 21 22 22 23 26 24
REMARK SMILES IDX 23 25 25 26 24 27
REMARK H PARENT 5 9
ROOT
ATOM      1  N   UNL     1     102.242  94.742 111.670  1.00  0.00    -0.241 N 
ATOM      2  C   UNL     1      99.465  95.067 111.215  1.00  0.00     0.038 C 
ATOM      3  C   UNL     1     100.220  96.129 111.574  1.00  0.00     0.053 C 
ATOM      4  C   UNL     1     100.119  93.772 111.072  1.00  0.00     0.046 C 
ATOM      5  C   UNL     1     101.667  96.020 111.823  1.00  0.00     0.059 C 
ATOM      6  C   UNL     1     101.438  93.670 111.299  1.00  0.00     0.115 C 
ATOM      7  C   UNL     1     102.317  97.146 112.173  1.00  0.00     0.039 C 
ENDROOT
BRANCH   2   8
ATOM      8  N   UNL     1      98.131  95.136 110.978  1.00  0.00    -0.378 N 
ATOM      9  H   UNL     1      97.515  94.617 111.598  1.00  0.00     0.161 HD
BRANCH   8  10
ATOM     10  C   UNL     1      97.552  95.819 109.846  1.00  0.00     0.110 C 
ATOM     11  C   UNL     1      96.049  95.503 109.723  1.00  0.00     0.034 C 
ATOM     12  C   UNL     1      98.069  95.251 108.558  1.00  0.00    -0.023 A 
ATOM     13  C   UNL     1      95.926  94.241 108.852  1.00  0.00     0.038 C 
ATOM     14  C   UNL     1      97.145  94.363 107.992  1.00  0.00    -0.043 A 
ATOM     15  C   UNL     1      99.290  95.492 107.948  1.00  0.00     0.006 A 
ATOM     16  C   UNL     1      97.426  93.694 106.813  1.00  0.00     0.004 A 
ATOM     17  C   UNL     1      99.577  94.831 106.752  1.00  0.00     0.000 A 
ATOM     18  C   UNL     1      98.651  93.938 106.189  1.00  0.00     0.000 A 
ENDBRANCH   8  10
ENDBRANCH   2   8
BRANCH   1  19
ATOM     19  N   UNL     1     103.569  94.495 111.869  1.00  0.00    -0.173 NA
ATOM     20  C   UNL     1     103.938  94.090 113.049  1.00  0.00     0.065 C 
ATOM     21  C   UNL     1     102.988  93.841 114.205  1.00  0.00     0.069 C 
BRANCH  20  22
ATOM     22  C   UNL     1     105.390  93.855 113.284  1.00  0.00    -0.003 A 
ATOM     23  C   UNL     1     106.265  93.756 112.203  1.00  0.00     0.010 A 
ATOM     24  C   UNL     1     105.873  93.733 114.587  1.00  0.00     0.010 A 
ATOM     25  C   UNL     1     107.624  93.536 112.424  1.00  0.00     0.001 A 
ATOM     26  C   UNL     1     107.233  93.514 114.808  1.00  0.00     0.001 A 
ATOM     27  C   UNL     1     108.109  93.414 113.727  1.00  0.00     0.000 A 
ENDBRANCH  20  22
ENDBRANCH   1  19
TORSDOF 4
ENDMDL
MODEL 13
REMARK VINA RESULT:      -5.8     11.415     15.001
REMARK SMILES C=C1C=C(N[C@@H]2CCc3ccccc32)C=CN1/N=C(\C)c1ccccc1
REMARK SMILES IDX 17 1 4 2 3 3 15 4 2 5 16 6 1 7 5 8 6 10 7 11 14 12 8 13 9 14
REMARK SMILES IDX 13 15 10 16 12 17 11 18 18 19 19 20 20 21 21 22 22 23 26 24
REMARK SMILES IDX 23 25 25 26 24 27
REMARK H PARENT 5 9
ROOT
ATOM      1  N   UNL     1     100.939  96.251 114.127  1.00  0.00    -0.241 N 
ATOM      2  C   UNL     1     103.144  95.499 112.515  1.00  0.00     0.038 C 
ATOM      3  C   UNL     1     102.454  94.559 113.199  1.00  0.00     0.053 C 
ATOM      4  C   UNL     1     102.720  96.889 112.634  1.00  0.00     0.046 C 
ATOM      5  C   UNL     1     101.300  94.891 114.051  1.00  0.00     0.059 C 
ATOM      6  C   UNL     1     101.669  97.193 113.411  1.00  0.00     0.115 C 
ATOM      7  C   UNL     1     100.690  93.870 114.683  1.00  0.00     0.039 C 
ENDROOT
BRANCH   2   8
ATOM      8  N   UNL     1     104.210  95.224 111.722  1.00  0.00    -0.378 N 
ATOM      9  H   UNL     1     104.076  94.558 110.967  1.00  0.00     0.161 HD
BRANCH   8  10
ATOM     10  C   UNL     1     105.536  95.745 111.953  1.00  0.00     0.110 C 
ATOM     11  C   UNL     1     106.465  95.430 110.766  1.00  0.00     0.034 C 
ATOM     12  C   UNL     1     106.219  94.996 113.058  1.00  0.00    -0.023 A 
ATOM     13  C   UNL     1     107.103  94.058 111.048  1.00  0.00     0.038 C 
ATOM     14  C   UNL     1     107.112  94.045 112.544  1.00  0.00    -0.043 A 
ATOM     15  C   UNL     1     106.038  95.136 114.425  1.00  0.00     0.006 A 
ATOM     16  C   UNL     1     107.831  93.213 113.385  1.00  0.00     0.004 A 
ATOM     17  C   UNL     1     106.769  94.310 115.280  1.00  0.00     0.000 A 
ATOM     18  C   UNL     1     107.659  93.355 114.763  1.00  0.00     0.000 A 
ENDBRANCH   8  10
ENDBRANCH   2   8
BRANCH   1  19
ATOM     19  N   UNL     1      99.893  96.702 114.878  1.00  0.00    -0.173 NA
ATOM     20  C   UNL     1      98.729  96.783 114.306  1.00  0.00     0.065 C 
ATOM     21  C   UNL     1      98.449  96.375 112.871  1.00  0.00     0.069 C 
BRANCH  20  22
ATOM     22  C   UNL     1      97.590  97.310 115.108  1.00  0.00    -0.003 A 
ATOM     23  C   UNL     1      97.045  96.539 116.134  1.00  0.00     0.010 A 
ATOM     24  C   UNL     1      97.070  98.574 114.832  1.00  0.00     0.010 A 
ATOM     25  C   UNL     1      95.979  97.033 116.886  1.00  0.00     0.001 A 
ATOM     26  C   UNL     1      96.004  99.068 115.584  1.00  0.00     0.001 A 
ATOM     27  C   UNL     1      95.457  98.298 116.611  1.00  0.00     0.000 A 
ENDBRANCH  20  22
ENDBRANCH   1  19
TORSDOF 4
ENDMDL
MODEL 14
REMARK VINA RESULT:      -5.7     11.964     13.848
REMARK SMILES C=C1C=C(N[C@@H]2CCc3ccccc32)C=CN1/N=C(\C)c1ccccc1
REMARK SMILES IDX 17 1 4 2 3 3 15 4 2 5 16 6 1 7 5 8 6 10 7 11 14 12 8 13 9 14
REMARK SMILES IDX 13 15 10 16 12 17 11 18 18 19 19 20 20 21 21 22 22 23 26 24
REMARK SMILES IDX 23 25 25 26 24 27
REMARK H PARENT 5 9
ROOT
ATOM      1  N   UNL     1      99.777  94.729 110.434  1.00  0.00    -0.241 N 
ATOM      2  C   UNL     1     102.077  94.161 111.987  1.00  0.00     0.038 C 
ATOM      3  C   UNL     1     101.344  93.150 111.470  1.00  0.00     0.053 C 
ATOM      4  C   UNL     1     101.651  95.530 111.720  1.00  0.00     0.046 C 
ATOM      5  C   UNL     1     100.140  93.385 110.656  1.00  0.00     0.059 C 
ATOM      6  C   UNL     1     100.554  95.746 110.979  1.00  0.00     0.115 C 
ATOM      7  C   UNL     1      99.490  92.300 110.194  1.00  0.00     0.039 C 
ENDROOT
BRANCH   2   8
ATOM      8  N   UNL     1     103.191  93.976 112.740  1.00  0.00    -0.378 N 
ATOM      9  H   UNL     1     103.200  93.189 113.382  1.00  0.00     0.161 HD
BRANCH   8  10
ATOM     10  C   UNL     1     104.311  94.886 112.751  1.00  0.00     0.110 C 
ATOM     11  C   UNL     1     105.273  94.588 111.585  1.00  0.00     0.034 C 
ATOM     12  C   UNL     1     105.201  94.624 113.929  1.00  0.00    -0.023 A 
ATOM     13  C   UNL     1     106.287  93.549 112.095  1.00  0.00     0.038 C 
ATOM     14  C   UNL     1     106.323  93.872 113.556  1.00  0.00    -0.043 A 
ATOM     15  C   UNL     1     105.009  95.008 115.247  1.00  0.00     0.006 A 
ATOM     16  C   UNL     1     107.267  93.484 114.491  1.00  0.00     0.004 A 
ATOM     17  C   UNL     1     105.962  94.632 116.195  1.00  0.00     0.000 A 
ATOM     18  C   UNL     1     107.083  93.875 115.819  1.00  0.00     0.000 A 
ENDBRANCH   8  10
ENDBRANCH   2   8
BRANCH   1  19
ATOM     19  N   UNL     1      98.686  95.094 109.700  1.00  0.00    -0.173 NA
ATOM     20  C   UNL     1      98.835  95.209 108.414  1.00  0.00     0.065 C 
ATOM     21  C   UNL     1     100.129  94.931 107.672  1.00  0.00     0.069 C 
BRANCH  20  22
ATOM     22  C   UNL     1      97.659  95.644 107.610  1.00  0.00    -0.003 A 
ATOM     23  C   UNL     1      96.689  96.467 108.182  1.00  0.00     0.010 A 
ATOM     24  C   UNL     1      97.527  95.226 106.286  1.00  0.00     0.010 A 
ATOM     25  C   UNL     1      95.588  96.874 107.429  1.00  0.00     0.001 A 
ATOM     26  C   UNL     1      96.425  95.633 105.533  1.00  0.00     0.001 A 
ATOM     27  C   UNL     1      95.455  96.456 106.104  1.00  0.00     0.000 A 
ENDBRANCH  20  22
ENDBRANCH   1  19
TORSDOF 4
ENDMDL
MODEL 15
REMARK VINA RESULT:      -5.7     11.902     14.272
REMARK SMILES C=C1C=C(N[C@@H]2CCc3ccccc32)C=CN1/N=C(\C)c1ccccc1
REMARK SMILES IDX 17 1 4 2 3 3 15 4 2 5 16 6 1 7 5 8 6 10 7 11 14 12 8 13 9 14
REMARK SMILES IDX 13 15 10 16 12 17 11 18 18 19 19 20 20 21 21 22 22 23 26 24
REMARK SMILES IDX 23 25 25 26 24 27
REMARK H PARENT 5 9
ROOT
ATOM      1  N   UNL     1     101.325  96.383 112.740  1.00  0.00    -0.241 N 
ATOM      2  C   UNL     1     104.035  96.807 113.446  1.00  0.00     0.038 C 
ATOM      3  C   UNL     1     103.270  95.967 114.178  1.00  0.00     0.053 C 
ATOM      4  C   UNL     1     103.428  97.474 112.301  1.00  0.00     0.046 C 
ATOM      5  C   UNL     1     101.856  95.708 113.858  1.00  0.00     0.059 C 
ATOM      6  C   UNL     1     102.139  97.240 112.009  1.00  0.00     0.115 C 
ATOM      7  C   UNL     1     101.193  94.850 114.657  1.00  0.00     0.039 C 
ENDROOT
BRANCH   2   8
ATOM      8  N   UNL     1     105.340  97.066 113.715  1.00  0.00    -0.378 N 
ATOM      9  H   UNL     1     105.555  97.916 114.227  1.00  0.00     0.161 HD
BRANCH   8  10
ATOM     10  C   UNL     1     106.433  96.258 113.232  1.00  0.00     0.110 C 
ATOM     11  C   UNL     1     106.369  96.105 111.700  1.00  0.00     0.034 C 
ATOM     12  C   UNL     1     106.277  94.831 113.667  1.00  0.00    -0.023 A 
ATOM     13  C   UNL     1     105.504  94.867 111.409  1.00  0.00     0.038 C 
ATOM     14  C   UNL     1     105.757  94.043 112.632  1.00  0.00    -0.043 A 
ATOM     15  C   UNL     1     106.555  94.282 114.909  1.00  0.00     0.006 A 
ATOM     16  C   UNL     1     105.498  92.696 112.820  1.00  0.00     0.004 A 
ATOM     17  C   UNL     1     106.309  92.922 115.104  1.00  0.00     0.000 A 
ATOM     18  C   UNL     1     105.784  92.135 114.066  1.00  0.00     0.000 A 
ENDBRANCH   8  10
ENDBRANCH   2   8
BRANCH   1  19
ATOM     19  N   UNL     1     100.032  96.238 112.330  1.00  0.00    -0.173 NA
ATOM     20  C   UNL     1      99.780  95.326 111.438  1.00  0.00     0.065 C 
ATOM     21  C   UNL     1     100.820  94.391 110.851  1.00  0.00     0.069 C 
BRANCH  20  22
ATOM     22  C   UNL     1      98.377  95.188 110.957  1.00  0.00    -0.003 A 
ATOM     23  C   UNL     1      97.462  96.219 111.169  1.00  0.00     0.010 A 
ATOM     24  C   UNL     1      97.979  94.027 110.295  1.00  0.00     0.010 A 
ATOM     25  C   UNL     1      96.148  96.088 110.718  1.00  0.00     0.001 A 
ATOM     26  C   UNL     1      96.665  93.897 109.843  1.00  0.00     0.001 A 
ATOM     27  C   UNL     1      95.749  94.927 110.056  1.00  0.00     0.000 A 
ENDBRANCH  20  22
ENDBRANCH   1  19
TORSDOF 4
ENDMDL
