MODEL 1
REMARK VINA RESULT:      -8.0      0.000      0.000
REMARK SMILES Cc1nc(-c2ccccc2)sc1CCNC(=O)c1cccc(Br)c1
REMARK SMILES IDX 14 1 15 2 16 3 17 4 18 6 22 7 24 8 21 9 20 10 19 11 23 12
REMARK SMILES IDX 13 13 12 14 11 15 2 16 4 17 3 18 1 19 5 20 6 21 10 22 7 23
REMARK SMILES IDX 9 24 8 25
REMARK H PARENT 15 5
ROOT
ATOM      1  C   UNL     1      96.700 108.794 109.618  1.00  0.00     0.122 C 
ENDROOT
BRANCH   1   2
ATOM      2  N   UNL     1      97.130 108.061 110.831  1.00  0.00    -0.352 N 
ATOM      3  C   UNL     1      96.799 108.506 112.081  1.00  0.00     0.251 C 
ATOM      4  O   UNL     1      96.141 109.510 112.343  1.00  0.00    -0.269 OA
ATOM      5  H   UNL     1      97.745 107.270 110.682  1.00  0.00     0.163 HD
BRANCH   3   6
ATOM      6  C   UNL     1      97.329 107.676 113.193  1.00  0.00     0.040 A 
ATOM      7  C   UNL     1      97.697 105.527 114.169  1.00  0.00     0.018 A 
ATOM      8  C   UNL     1      97.201 106.304 113.122  1.00  0.00     0.029 A 
ATOM      9  C   UNL     1      98.310 106.138 115.261  1.00  0.00     0.016 A 
ATOM     10  C   UNL     1      98.428 107.527 115.310  1.00  0.00     0.002 A 
ATOM     11  C   UNL     1      97.931 108.305 114.263  1.00  0.00     0.014 A 
ATOM     12  Br  UNL     1      97.543 103.644 114.102  1.00  0.00    -0.051 Br
ENDBRANCH   3   6
ENDBRANCH   1   2
BRANCH   1  13
ATOM     13  C   UNL     1      95.807 107.892 108.746  1.00  0.00     0.070 C 
BRANCH  13  14
ATOM     14  C   UNL     1      96.447 107.462 107.486  1.00  0.00     0.030 A 
ATOM     15  S   UNL     1      95.633 107.661 105.990  1.00  0.00    -0.119 S 
ATOM     16  C   UNL     1      97.680 106.883 107.268  1.00  0.00     0.052 A 
ATOM     17  C   UNL     1      96.982 106.963 105.190  1.00  0.00     0.123 A 
ATOM     18  N   UNL     1      97.988 106.596 105.952  1.00  0.00    -0.241 NA
ATOM     19  C   UNL     1      98.679 106.550 108.305  1.00  0.00     0.068 C 
BRANCH  17  20
ATOM     20  C   UNL     1      96.938 106.823 103.755  1.00  0.00     0.010 A 
ATOM     21  C   UNL     1      98.120 106.660 103.033  1.00  0.00     0.011 A 
ATOM     22  C   UNL     1      95.712 106.850 103.089  1.00  0.00     0.011 A 
ATOM     23  C   UNL     1      98.076 106.523 101.646  1.00  0.00     0.001 A 
ATOM     24  C   UNL     1      95.669 106.714 101.701  1.00  0.00     0.001 A 
ATOM     25  C   UNL     1      96.851 106.550 100.979  1.00  0.00     0.000 A 
ENDBRANCH  17  20
ENDBRANCH  13  14
ENDBRANCH   1  13
TORSDOF 5
ENDMDL
MODEL 2
REMARK VINA RESULT:      -7.8      1.222      1.569
REMARK SMILES Cc1nc(-c2ccccc2)sc1CCNC(=O)c1cccc(Br)c1
REMARK SMILES IDX 14 1 15 2 16 3 17 4 18 6 22 7 24 8 21 9 20 10 19 11 23 12
REMARK SMILES IDX 13 13 12 14 11 15 2 16 4 17 3 18 1 19 5 20 6 21 10 22 7 23
REMARK SMILES IDX 9 24 8 25
REMARK H PARENT 15 5
ROOT
ATOM      1  C   UNL     1      97.249 108.600 109.629  1.00  0.00     0.122 C 
ENDROOT
BRANCH   1   2
ATOM      2  N   UNL     1      97.525 107.938 110.924  1.00  0.00    -0.352 N 
ATOM      3  C   UNL     1      96.747 108.179 112.022  1.00  0.00     0.251 C 
ATOM      4  O   UNL     1      95.777 108.932 112.072  1.00  0.00    -0.269 OA
ATOM      5  H   UNL     1      98.362 107.368 110.967  1.00  0.00     0.163 HD
BRANCH   3   6
ATOM      6  C   UNL     1      97.170 107.460 113.251  1.00  0.00     0.040 A 
ATOM      7  C   UNL     1      98.028 107.512 115.479  1.00  0.00     0.018 A 
ATOM      8  C   UNL     1      97.628 108.190 114.328  1.00  0.00     0.029 A 
ATOM      9  C   UNL     1      97.960 106.120 115.528  1.00  0.00     0.016 A 
ATOM     10  C   UNL     1      97.494 105.405 114.426  1.00  0.00     0.002 A 
ATOM     11  C   UNL     1      97.094 106.082 113.273  1.00  0.00     0.014 A 
ATOM     12  Br  UNL     1      98.656 108.481 116.976  1.00  0.00    -0.051 Br
ENDBRANCH   3   6
ENDBRANCH   1   2
BRANCH   1  13
ATOM     13  C   UNL     1      96.257 107.757 108.806  1.00  0.00     0.070 C 
BRANCH  13  14
ATOM     14  C   UNL     1      96.788 107.323 107.497  1.00  0.00     0.030 A 
ATOM     15  S   UNL     1      95.880 107.579 106.066  1.00  0.00    -0.119 S 
ATOM     16  C   UNL     1      97.978 106.698 107.185  1.00  0.00     0.052 A 
ATOM     17  C   UNL     1      97.139 106.841 105.163  1.00  0.00     0.123 A 
ATOM     18  N   UNL     1      98.181 106.421 105.847  1.00  0.00    -0.241 NA
ATOM     19  C   UNL     1      99.033 106.308 108.143  1.00  0.00     0.068 C 
BRANCH  17  20
ATOM     20  C   UNL     1      96.988 106.726 103.732  1.00  0.00     0.010 A 
ATOM     21  C   UNL     1      98.110 106.536 102.926  1.00  0.00     0.011 A 
ATOM     22  C   UNL     1      95.720 106.805 103.157  1.00  0.00     0.011 A 
ATOM     23  C   UNL     1      97.963 106.424 101.543  1.00  0.00     0.001 A 
ATOM     24  C   UNL     1      95.574 106.693 101.774  1.00  0.00     0.001 A 
ATOM     25  C   UNL     1      96.695 106.503 100.967  1.00  0.00     0.000 A 
ENDBRANCH  17  20
ENDBRANCH  13  14
ENDBRANCH   1  13
TORSDOF 5
ENDMDL
MODEL 3
REMARK VINA RESULT:      -6.7      1.851      2.477
REMARK SMILES Cc1nc(-c2ccccc2)sc1CCNC(=O)c1cccc(Br)c1
REMARK SMILES IDX 14 1 15 2 16 3 17 4 18 6 22 7 24 8 21 9 20 10 19 11 23 12
REMARK SMILES IDX 13 13 12 14 11 15 2 16 4 17 3 18 1 19 5 20 6 21 10 22 7 23
REMARK SMILES IDX 9 24 8 25
REMARK H PARENT 15 5
ROOT
ATOM      1  C   UNL     1      97.821 108.149 109.805  1.00  0.00     0.122 C 
ENDROOT
BRANCH   1   2
ATOM      2  N   UNL     1      97.329 108.768 111.056  1.00  0.00    -0.352 N 
ATOM      3  C   UNL     1      97.117 108.019 112.181  1.00  0.00     0.251 C 
ATOM      4  O   UNL     1      97.297 106.809 112.290  1.00  0.00    -0.269 OA
ATOM      5  H   UNL     1      97.084 109.750 111.004  1.00  0.00     0.163 HD
BRANCH   3   6
ATOM      6  C   UNL     1      96.597 108.784 113.344  1.00  0.00     0.040 A 
ATOM      7  C   UNL     1      96.249 108.972 115.699  1.00  0.00     0.018 A 
ATOM      8  C   UNL     1      96.740 108.254 114.609  1.00  0.00     0.029 A 
ATOM      9  C   UNL     1      95.626 110.203 115.499  1.00  0.00     0.016 A 
ATOM     10  C   UNL     1      95.493 110.718 114.210  1.00  0.00     0.002 A 
ATOM     11  C   UNL     1      95.984 109.999 113.119  1.00  0.00     0.014 A 
ATOM     12  Br  UNL     1      96.432 108.278 117.448  1.00  0.00    -0.051 Br
ENDBRANCH   3   6
ENDBRANCH   1   2
BRANCH   1  13
ATOM     13  C   UNL     1      96.636 107.809 108.882  1.00  0.00     0.070 C 
BRANCH  13  14
ATOM     14  C   UNL     1      97.042 107.315 107.551  1.00  0.00     0.030 A 
ATOM     15  S   UNL     1      96.109 107.699 106.164  1.00  0.00    -0.119 S 
ATOM     16  C   UNL     1      98.121 106.539 107.182  1.00  0.00     0.052 A 
ATOM     17  C   UNL     1      97.213 106.805 105.202  1.00  0.00     0.123 A 
ATOM     18  N   UNL     1      98.221 106.245 105.836  1.00  0.00    -0.241 NA
ATOM     19  C   UNL     1      99.158 106.005 108.089  1.00  0.00     0.068 C 
BRANCH  17  20
ATOM     20  C   UNL     1      96.981 106.719 103.781  1.00  0.00     0.010 A 
ATOM     21  C   UNL     1      95.678 106.730 103.284  1.00  0.00     0.011 A 
ATOM     22  C   UNL     1      98.062 106.626 102.903  1.00  0.00     0.011 A 
ATOM     23  C   UNL     1      95.455 106.648 101.910  1.00  0.00     0.001 A 
ATOM     24  C   UNL     1      97.838 106.544 101.528  1.00  0.00     0.001 A 
ATOM     25  C   UNL     1      96.534 106.554 101.032  1.00  0.00     0.000 A 
ENDBRANCH  17  20
ENDBRANCH  13  14
ENDBRANCH   1  13
TORSDOF 5
ENDMDL
MODEL 4
REMARK VINA RESULT:      -6.4     13.032     13.848
REMARK SMILES Cc1nc(-c2ccccc2)sc1CCNC(=O)c1cccc(Br)c1
REMARK SMILES IDX 14 1 15 2 16 3 17 4 18 6 22 7 24 8 21 9 20 10 19 11 23 12
REMARK SMILES IDX 13 13 12 14 11 15 2 16 4 17 3 18 1 19 5 20 6 21 10 22 7 23
REMARK SMILES IDX 9 24 8 25
REMARK H PARENT 15 5
ROOT
ATOM      1  C   UNL     1      99.952  95.614 111.480  1.00  0.00     0.122 C 
ENDROOT
BRANCH   1   2
ATOM      2  N   UNL     1     101.408  95.873 111.402  1.00  0.00    -0.352 N 
ATOM      3  C   UNL     1     102.215  95.711 112.493  1.00  0.00     0.251 C 
ATOM      4  O   UNL     1     101.858  95.350 113.612  1.00  0.00    -0.269 OA
ATOM      5  H   UNL     1     101.749  96.253 110.526  1.00  0.00     0.163 HD
BRANCH   3   6
ATOM      6  C   UNL     1     103.645  96.038 112.259  1.00  0.00     0.040 A 
ATOM      7  C   UNL     1     105.866  95.325 111.744  1.00  0.00     0.018 A 
ATOM      8  C   UNL     1     104.524  95.017 111.961  1.00  0.00     0.029 A 
ATOM      9  C   UNL     1     106.300  96.647 111.828  1.00  0.00     0.016 A 
ATOM     10  C   UNL     1     105.393  97.662 112.130  1.00  0.00     0.002 A 
ATOM     11  C   UNL     1     104.049  97.354 112.348  1.00  0.00     0.014 A 
ATOM     12  Br  UNL     1     107.096  93.951 111.330  1.00  0.00    -0.051 Br
ENDBRANCH   3   6
ENDBRANCH   1   2
BRANCH   1  13
ATOM     13  C   UNL     1      99.313  95.773 110.088  1.00  0.00     0.070 C 
BRANCH  13  14
ATOM     14  C   UNL     1      99.723  94.733 109.123  1.00  0.00     0.030 A 
ATOM     15  S   UNL     1      99.979  95.133 107.475  1.00  0.00    -0.119 S 
ATOM     16  C   UNL     1      99.961  93.387 109.315  1.00  0.00     0.052 A 
ATOM     17  C   UNL     1     100.378  93.493 107.163  1.00  0.00     0.123 A 
ATOM     18  N   UNL     1     100.336  92.675 108.192  1.00  0.00    -0.241 NA
ATOM     19  C   UNL     1      99.848  92.659 110.595  1.00  0.00     0.068 C 
BRANCH  17  20
ATOM     20  C   UNL     1     100.732  93.111 105.818  1.00  0.00     0.010 A 
ATOM     21  C   UNL     1     101.976  93.466 105.296  1.00  0.00     0.011 A 
ATOM     22  C   UNL     1      99.830  92.386 105.039  1.00  0.00     0.011 A 
ATOM     23  C   UNL     1     102.318  93.096 103.995  1.00  0.00     0.001 A 
ATOM     24  C   UNL     1     100.173  92.016 103.738  1.00  0.00     0.001 A 
ATOM     25  C   UNL     1     101.416  92.371 103.216  1.00  0.00     0.000 A 
ENDBRANCH  17  20
ENDBRANCH  13  14
ENDBRANCH   1  13
TORSDOF 5
ENDMDL
MODEL 5
REMARK VINA RESULT:      -6.4     13.057     13.994
REMARK SMILES Cc1nc(-c2ccccc2)sc1CCNC(=O)c1cccc(Br)c1
REMARK SMILES IDX 14 1 15 2 16 3 17 4 18 6 22 7 24 8 21 9 20 10 19 11 23 12
REMARK SMILES IDX 13 13 12 14 11 15 2 16 4 17 3 18 1 19 5 20 6 21 10 22 7 23
REMARK SMILES IDX 9 24 8 25
REMARK H PARENT 15 5
ROOT
ATOM      1  C   UNL     1     101.296  96.458 111.678  1.00  0.00     0.122 C 
ENDROOT
BRANCH   1   2
ATOM      2  N   UNL     1     102.561  95.737 111.948  1.00  0.00    -0.352 N 
ATOM      3  C   UNL     1     103.703  96.411 112.280  1.00  0.00     0.251 C 
ATOM      4  O   UNL     1     103.820  97.629 112.392  1.00  0.00    -0.269 OA
ATOM      5  H   UNL     1     102.548  94.735 111.792  1.00  0.00     0.163 HD
BRANCH   3   6
ATOM      6  C   UNL     1     104.892  95.545 112.492  1.00  0.00     0.040 A 
ATOM      7  C   UNL     1     106.353  94.375 113.976  1.00  0.00     0.018 A 
ATOM      8  C   UNL     1     105.235  95.185 113.779  1.00  0.00     0.029 A 
ATOM      9  C   UNL     1     107.102  93.943 112.883  1.00  0.00     0.016 A 
ATOM     10  C   UNL     1     106.735  94.320 111.592  1.00  0.00     0.002 A 
ATOM     11  C   UNL     1     105.616  95.131 111.394  1.00  0.00     0.014 A 
ATOM     12  Br  UNL     1     106.849  93.860 115.726  1.00  0.00    -0.051 Br
ENDBRANCH   3   6
ENDBRANCH   1   2
BRANCH   1  13
ATOM     13  C   UNL     1     100.137  95.455 111.535  1.00  0.00     0.070 C 
BRANCH  13  14
ATOM     14  C   UNL     1     100.176  94.676 110.281  1.00  0.00     0.030 A 
ATOM     15  S   UNL     1     100.006  95.464 108.767  1.00  0.00    -0.119 S 
ATOM     16  C   UNL     1     100.338  93.321 110.081  1.00  0.00     0.052 A 
ATOM     17  C   UNL     1     100.160  93.944 107.985  1.00  0.00     0.123 A 
ATOM     18  N   UNL     1     100.329  92.899 108.765  1.00  0.00    -0.241 NA
ATOM     19  C   UNL     1     100.516  92.302 111.137  1.00  0.00     0.068 C 
BRANCH  17  20
ATOM     20  C   UNL     1     100.099  93.898 106.544  1.00  0.00     0.010 A 
ATOM     21  C   UNL     1     101.176  93.394 105.816  1.00  0.00     0.011 A 
ATOM     22  C   UNL     1      98.962  94.359 105.880  1.00  0.00     0.011 A 
ATOM     23  C   UNL     1     101.116  93.349 104.423  1.00  0.00     0.001 A 
ATOM     24  C   UNL     1      98.903  94.314 104.487  1.00  0.00     0.001 A 
ATOM     25  C   UNL     1      99.979  93.809 103.758  1.00  0.00     0.000 A 
ENDBRANCH  17  20
ENDBRANCH  13  14
ENDBRANCH   1  13
TORSDOF 5
ENDMDL
MODEL 6
REMARK VINA RESULT:      -6.3     13.567     14.411
REMARK SMILES Cc1nc(-c2ccccc2)sc1CCNC(=O)c1cccc(Br)c1
REMARK SMILES IDX 14 1 15 2 16 3 17 4 18 6 22 7 24 8 21 9 20 10 19 11 23 12
REMARK SMILES IDX 13 13 12 14 11 15 2 16 4 17 3 18 1 19 5 20 6 21 10 22 7 23
REMARK SMILES IDX 9 24 8 25
REMARK H PARENT 15 5
ROOT
ATOM      1  C   UNL     1     100.319  96.025 110.675  1.00  0.00     0.122 C 
ENDROOT
BRANCH   1   2
ATOM      2  N   UNL     1     101.326  95.052 111.153  1.00  0.00    -0.352 N 
ATOM      3  C   UNL     1     102.408  95.455 111.887  1.00  0.00     0.251 C 
ATOM      4  O   UNL     1     102.666  96.608 112.224  1.00  0.00    -0.269 OA
ATOM      5  H   UNL     1     101.211  94.096 110.838  1.00  0.00     0.163 HD
BRANCH   3   6
ATOM      6  C   UNL     1     103.340  94.362 112.266  1.00  0.00     0.040 A 
ATOM      7  C   UNL     1     105.568  93.519 112.439  1.00  0.00     0.018 A 
ATOM      8  C   UNL     1     104.695  94.547 112.085  1.00  0.00     0.029 A 
ATOM      9  C   UNL     1     105.067  92.330 112.967  1.00  0.00     0.016 A 
ATOM     10  C   UNL     1     103.693  92.167 113.142  1.00  0.00     0.002 A 
ATOM     11  C   UNL     1     102.819  93.196 112.787  1.00  0.00     0.014 A 
ATOM     12  Br  UNL     1     107.431  93.740 112.208  1.00  0.00    -0.051 Br
ENDBRANCH   3   6
ENDBRANCH   1   2
BRANCH   1  13
ATOM     13  C   UNL     1      99.170  95.288 109.962  1.00  0.00     0.070 C 
BRANCH  13  14
ATOM     14  C   UNL     1      99.624  94.364 108.902  1.00  0.00     0.030 A 
ATOM     15  S   UNL     1      99.924  94.946 107.317  1.00  0.00    -0.119 S 
ATOM     16  C   UNL     1      99.874  93.008 108.953  1.00  0.00     0.052 A 
ATOM     17  C   UNL     1     100.355  93.354 106.841  1.00  0.00     0.123 A 
ATOM     18  N   UNL     1     100.293  92.427 107.772  1.00  0.00    -0.241 NA
ATOM     19  C   UNL     1      99.733  92.143 110.142  1.00  0.00     0.068 C 
BRANCH  17  20
ATOM     20  C   UNL     1     100.755  93.126 105.473  1.00  0.00     0.010 A 
ATOM     21  C   UNL     1     102.088  93.294 105.099  1.00  0.00     0.011 A 
ATOM     22  C   UNL     1      99.808  92.737 104.526  1.00  0.00     0.011 A 
ATOM     23  C   UNL     1     102.474  93.073 103.777  1.00  0.00     0.001 A 
ATOM     24  C   UNL     1     100.195  92.516 103.204  1.00  0.00     0.001 A 
ATOM     25  C   UNL     1     101.528  92.684 102.829  1.00  0.00     0.000 A 
ENDBRANCH  17  20
ENDBRANCH  13  14
ENDBRANCH   1  13
TORSDOF 5
ENDMDL
MODEL 7
REMARK VINA RESULT:      -6.3     13.820     14.823
REMARK SMILES Cc1nc(-c2ccccc2)sc1CCNC(=O)c1cccc(Br)c1
REMARK SMILES IDX 14 1 15 2 16 3 17 4 18 6 22 7 24 8 21 9 20 10 19 11 23 12
REMARK SMILES IDX 13 13 12 14 11 15 2 16 4 17 3 18 1 19 5 20 6 21 10 22 7 23
REMARK SMILES IDX 9 24 8 25
REMARK H PARENT 15 5
ROOT
ATOM      1  C   UNL     1     100.564  91.931 111.932  1.00  0.00     0.122 C 
ENDROOT
BRANCH   1   2
ATOM      2  N   UNL     1     101.884  92.594 111.830  1.00  0.00    -0.352 N 
ATOM      3  C   UNL     1     102.540  93.041 112.944  1.00  0.00     0.251 C 
ATOM      4  O   UNL     1     102.141  92.955 114.103  1.00  0.00    -0.269 OA
ATOM      5  H   UNL     1     102.228  92.767 110.893  1.00  0.00     0.163 HD
BRANCH   3   6
ATOM      6  C   UNL     1     103.839  93.707 112.671  1.00  0.00     0.040 A 
ATOM      7  C   UNL     1     105.086  95.701 112.251  1.00  0.00     0.018 A 
ATOM      8  C   UNL     1     103.866  95.077 112.510  1.00  0.00     0.029 A 
ATOM      9  C   UNL     1     106.252  94.941 112.161  1.00  0.00     0.016 A 
ATOM     10  C   UNL     1     106.199  93.558 112.329  1.00  0.00     0.002 A 
ATOM     11  C   UNL     1     104.978  92.933 112.587  1.00  0.00     0.014 A 
ATOM     12  Br  UNL     1     105.160  97.576 112.028  1.00  0.00    -0.051 Br
ENDBRANCH   3   6
ENDBRANCH   1   2
BRANCH   1  13
ATOM     13  C   UNL     1      99.480  92.812 111.283  1.00  0.00     0.070 C 
BRANCH  13  14
ATOM     14  C   UNL     1      99.807  93.240 109.908  1.00  0.00     0.030 A 
ATOM     15  S   UNL     1     100.023  92.077 108.667  1.00  0.00    -0.119 S 
ATOM     16  C   UNL     1      99.986  94.507 109.391  1.00  0.00     0.052 A 
ATOM     17  C   UNL     1     100.334  93.350 107.559  1.00  0.00     0.123 A 
ATOM     18  N   UNL     1     100.288  94.572 108.044  1.00  0.00    -0.241 NA
ATOM     19  C   UNL     1      99.884  95.775 110.143  1.00  0.00     0.068 C 
BRANCH  17  20
ATOM     20  C   UNL     1     100.621  93.017 106.185  1.00  0.00     0.010 A 
ATOM     21  C   UNL     1      99.720  92.246 105.451  1.00  0.00     0.011 A 
ATOM     22  C   UNL     1     101.800  93.467 105.591  1.00  0.00     0.011 A 
ATOM     23  C   UNL     1      99.998  91.925 104.123  1.00  0.00     0.001 A 
ATOM     24  C   UNL     1     102.078  93.146 104.262  1.00  0.00     0.001 A 
ATOM     25  C   UNL     1     101.177  92.375 103.528  1.00  0.00     0.000 A 
ENDBRANCH  17  20
ENDBRANCH  13  14
ENDBRANCH   1  13
TORSDOF 5
ENDMDL
MODEL 8
REMARK VINA RESULT:      -6.3     13.425     16.100
REMARK SMILES Cc1nc(-c2ccccc2)sc1CCNC(=O)c1cccc(Br)c1
REMARK SMILES IDX 14 1 15 2 16 3 17 4 18 6 22 7 24 8 21 9 20 10 19 11 23 12
REMARK SMILES IDX 13 13 12 14 11 15 2 16 4 17 3 18 1 19 5 20 6 21 10 22 7 23
REMARK SMILES IDX 9 24 8 25
REMARK H PARENT 15 5
ROOT
ATOM      1  C   UNL     1     100.516  96.266 111.008  1.00  0.00     0.122 C 
ENDROOT
BRANCH   1   2
ATOM      2  N   UNL     1     100.346  95.791 109.616  1.00  0.00    -0.352 N 
ATOM      3  C   UNL     1      99.111  95.738 109.032  1.00  0.00     0.251 C 
ATOM      4  O   UNL     1      98.047  96.058 109.556  1.00  0.00    -0.269 OA
ATOM      5  H   UNL     1     101.178  95.436 109.159  1.00  0.00     0.163 HD
BRANCH   3   6
ATOM      6  C   UNL     1      99.106  95.214 107.642  1.00  0.00     0.040 A 
ATOM      7  C   UNL     1     100.263  94.189 105.820  1.00  0.00     0.018 A 
ATOM      8  C   UNL     1     100.268  94.678 107.126  1.00  0.00     0.029 A 
ATOM      9  C   UNL     1      99.096  94.246 105.059  1.00  0.00     0.016 A 
ATOM     10  C   UNL     1      97.934  94.792 105.603  1.00  0.00     0.002 A 
ATOM     11  C   UNL     1      97.939  95.282 106.910  1.00  0.00     0.014 A 
ATOM     12  Br  UNL     1     101.837  93.445 105.083  1.00  0.00    -0.051 Br
ENDBRANCH   3   6
ENDBRANCH   1   2
BRANCH   1  13
ATOM     13  C   UNL     1     100.327  95.095 111.991  1.00  0.00     0.070 C 
BRANCH  13  14
ATOM     14  C   UNL     1     101.561  94.321 112.237  1.00  0.00     0.030 A 
ATOM     15  S   UNL     1     103.062  95.126 112.440  1.00  0.00    -0.119 S 
ATOM     16  C   UNL     1     101.748  92.958 112.343  1.00  0.00     0.052 A 
ATOM     17  C   UNL     1     103.824  93.602 112.649  1.00  0.00     0.123 A 
ATOM     18  N   UNL     1     103.045  92.544 112.580  1.00  0.00    -0.241 NA
ATOM     19  C   UNL     1     100.698  91.925 112.228  1.00  0.00     0.068 C 
BRANCH  17  20
ATOM     20  C   UNL     1     105.246  93.567 112.886  1.00  0.00     0.010 A 
ATOM     21  C   UNL     1     106.135  93.744 111.826  1.00  0.00     0.011 A 
ATOM     22  C   UNL     1     105.733  93.355 114.176  1.00  0.00     0.011 A 
ATOM     23  C   UNL     1     107.510  93.711 112.056  1.00  0.00     0.001 A 
ATOM     24  C   UNL     1     107.108  93.322 114.406  1.00  0.00     0.001 A 
ATOM     25  C   UNL     1     107.997  93.499 113.346  1.00  0.00     0.000 A 
ENDBRANCH  17  20
ENDBRANCH  13  14
ENDBRANCH   1  13
TORSDOF 5
ENDMDL
MODEL 9
REMARK VINA RESULT:      -6.2     13.601     16.426
REMARK SMILES Cc1nc(-c2ccccc2)sc1CCNC(=O)c1cccc(Br)c1
REMARK SMILES IDX 14 1 15 2 16 3 17 4 18 6 22 7 24 8 21 9 20 10 19 11 23 12
REMARK SMILES IDX 13 13 12 14 11 15 2 16 4 17 3 18 1 19 5 20 6 21 10 22 7 23
REMARK SMILES IDX 9 24 8 25
REMARK H PARENT 15 5
ROOT
ATOM      1  C   UNL     1     100.308  94.139 111.223  1.00  0.00     0.122 C 
ENDROOT
BRANCH   1   2
ATOM      2  N   UNL     1     100.126  94.338 109.767  1.00  0.00    -0.352 N 
ATOM      3  C   UNL     1     100.192  93.288 108.895  1.00  0.00     0.251 C 
ATOM      4  O   UNL     1     100.398  92.112 109.190  1.00  0.00    -0.269 OA
ATOM      5  H   UNL     1     100.035  95.298 109.455  1.00  0.00     0.163 HD
BRANCH   3   6
ATOM      6  C   UNL     1     100.017  93.658 107.467  1.00  0.00     0.040 A 
ATOM      7  C   UNL     1     100.745  93.518 105.196  1.00  0.00     0.018 A 
ATOM      8  C   UNL     1     100.909  93.167 106.536  1.00  0.00     0.029 A 
ATOM      9  C   UNL     1      99.692  94.350 104.817  1.00  0.00     0.016 A 
ATOM     10  C   UNL     1      98.803  94.832 105.777  1.00  0.00     0.002 A 
ATOM     11  C   UNL     1      98.968  94.482 107.118  1.00  0.00     0.014 A 
ATOM     12  Br  UNL     1     101.947  92.861 103.893  1.00  0.00    -0.051 Br
ENDBRANCH   3   6
ENDBRANCH   1   2
BRANCH   1  13
ATOM     13  C   UNL     1     100.674  95.474 111.897  1.00  0.00     0.070 C 
BRANCH  13  14
ATOM     14  C   UNL     1     102.004  95.468 112.541  1.00  0.00     0.030 A 
ATOM     15  S   UNL     1     103.185  94.314 112.080  1.00  0.00    -0.119 S 
ATOM     16  C   UNL     1     102.517  96.287 113.526  1.00  0.00     0.052 A 
ATOM     17  C   UNL     1     104.267  94.998 113.223  1.00  0.00     0.123 A 
ATOM     18  N   UNL     1     103.815  96.019 113.918  1.00  0.00    -0.241 NA
ATOM     19  C   UNL     1     101.809  97.405 114.183  1.00  0.00     0.068 C 
BRANCH  17  20
ATOM     20  C   UNL     1     105.586  94.429 113.354  1.00  0.00     0.010 A 
ATOM     21  C   UNL     1     106.387  94.257 112.226  1.00  0.00     0.011 A 
ATOM     22  C   UNL     1     106.059  94.049 114.610  1.00  0.00     0.011 A 
ATOM     23  C   UNL     1     107.663  93.708 112.353  1.00  0.00     0.001 A 
ATOM     24  C   UNL     1     107.335  93.499 114.737  1.00  0.00     0.001 A 
ATOM     25  C   UNL     1     108.137  93.328 113.609  1.00  0.00     0.000 A 
ENDBRANCH  17  20
ENDBRANCH  13  14
ENDBRANCH   1  13
TORSDOF 5
ENDMDL
MODEL 10
REMARK VINA RESULT:      -6.2     13.318     14.491
REMARK SMILES Cc1nc(-c2ccccc2)sc1CCNC(=O)c1cccc(Br)c1
REMARK SMILES IDX 14 1 15 2 16 3 17 4 18 6 22 7 24 8 21 9 20 10 19 11 23 12
REMARK SMILES IDX 13 13 12 14 11 15 2 16 4 17 3 18 1 19 5 20 6 21 10 22 7 23
REMARK SMILES IDX 9 24 8 25
REMARK H PARENT 15 5
ROOT
ATOM      1  C   UNL     1     102.661  97.082 112.253  1.00  0.00     0.122 C 
ENDROOT
BRANCH   1   2
ATOM      2  N   UNL     1     103.705  96.188 112.805  1.00  0.00    -0.352 N 
ATOM      3  C   UNL     1     105.003  96.274 112.385  1.00  0.00     0.251 C 
ATOM      4  O   UNL     1     105.445  97.057 111.547  1.00  0.00    -0.269 OA
ATOM      5  H   UNL     1     103.386  95.466 113.440  1.00  0.00     0.163 HD
BRANCH   3   6
ATOM      6  C   UNL     1     105.922  95.290 113.014  1.00  0.00     0.040 A 
ATOM      7  C   UNL     1     106.728  94.176 114.967  1.00  0.00     0.018 A 
ATOM      8  C   UNL     1     105.863  95.098 114.379  1.00  0.00     0.029 A 
ATOM      9  C   UNL     1     107.631  93.465 114.178  1.00  0.00     0.016 A 
ATOM     10  C   UNL     1     107.671  93.676 112.800  1.00  0.00     0.002 A 
ATOM     11  C   UNL     1     106.806  94.600 112.211  1.00  0.00     0.014 A 
ATOM     12  Br  UNL     1     106.672  93.886 116.834  1.00  0.00    -0.051 Br
ENDBRANCH   3   6
ENDBRANCH   1   2
BRANCH   1  13
ATOM     13  C   UNL     1     101.270  96.451 112.446  1.00  0.00     0.070 C 
BRANCH  13  14
ATOM     14  C   UNL     1     100.956  95.394 111.462  1.00  0.00     0.030 A 
ATOM     15  S   UNL     1     100.135  95.781 110.007  1.00  0.00    -0.119 S 
ATOM     16  C   UNL     1     101.222  94.040 111.497  1.00  0.00     0.052 A 
ATOM     17  C   UNL     1     100.204  94.127 109.555  1.00  0.00     0.123 A 
ATOM     18  N   UNL     1     100.792  93.312 110.404  1.00  0.00    -0.241 NA
ATOM     19  C   UNL     1     101.915  93.319 112.584  1.00  0.00     0.068 C 
BRANCH  17  20
ATOM     20  C   UNL     1      99.627  93.730 108.294  1.00  0.00     0.010 A 
ATOM     21  C   UNL     1      98.405  94.263 107.886  1.00  0.00     0.011 A 
ATOM     22  C   UNL     1     100.293  92.811 107.482  1.00  0.00     0.011 A 
ATOM     23  C   UNL     1      97.849  93.879 106.667  1.00  0.00     0.001 A 
ATOM     24  C   UNL     1      99.736  92.428 106.262  1.00  0.00     0.001 A 
ATOM     25  C   UNL     1      98.513  92.961 105.854  1.00  0.00     0.000 A 
ENDBRANCH  17  20
ENDBRANCH  13  14
ENDBRANCH   1  13
TORSDOF 5
ENDMDL
MODEL 11
REMARK VINA RESULT:      -6.2     13.240     14.095
REMARK SMILES Cc1nc(-c2ccccc2)sc1CCNC(=O)c1cccc(Br)c1
REMARK SMILES IDX 14 1 15 2 16 3 17 4 18 6 22 7 24 8 21 9 20 10 19 11 23 12
REMARK SMILES IDX 13 13 12 14 11 15 2 16 4 17 3 18 1 19 5 20 6 21 10 22 7 23
REMARK SMILES IDX 9 24 8 25
REMARK H PARENT 15 5
ROOT
ATOM      1  C   UNL     1      99.983  95.549 110.664  1.00  0.00     0.122 C 
ENDROOT
BRANCH   1   2
ATOM      2  N   UNL     1     101.057  94.662 111.166  1.00  0.00    -0.352 N 
ATOM      3  C   UNL     1     102.133  95.167 111.842  1.00  0.00     0.251 C 
ATOM      4  O   UNL     1     102.334  96.351 112.104  1.00  0.00    -0.269 OA
ATOM      5  H   UNL     1     100.988  93.684 110.910  1.00  0.00     0.163 HD
BRANCH   3   6
ATOM      6  C   UNL     1     103.136  94.152 112.256  1.00  0.00     0.040 A 
ATOM      7  C   UNL     1     105.411  93.442 112.403  1.00  0.00     0.018 A 
ATOM      8  C   UNL     1     104.472  94.397 112.017  1.00  0.00     0.029 A 
ATOM      9  C   UNL     1     104.994  92.264 113.020  1.00  0.00     0.016 A 
ATOM     10  C   UNL     1     103.637  92.039 113.252  1.00  0.00     0.002 A 
ATOM     11  C   UNL     1     102.697  92.995 112.865  1.00  0.00     0.014 A 
ATOM     12  Br  UNL     1     107.251  93.747 112.094  1.00  0.00    -0.051 Br
ENDBRANCH   3   6
ENDBRANCH   1   2
BRANCH   1  13
ATOM     13  C   UNL     1      98.892  94.713 109.968  1.00  0.00     0.070 C 
BRANCH  13  14
ATOM     14  C   UNL     1      99.044  94.641 108.501  1.00  0.00     0.030 A 
ATOM     15  S   UNL     1     100.284  93.680 107.805  1.00  0.00    -0.119 S 
ATOM     16  C   UNL     1      98.315  95.251 107.501  1.00  0.00     0.052 A 
ATOM     17  C   UNL     1      99.747  94.158 106.247  1.00  0.00     0.123 A 
ATOM     18  N   UNL     1      98.717  94.975 106.207  1.00  0.00    -0.241 NA
ATOM     19  C   UNL     1      97.164  96.156 107.693  1.00  0.00     0.068 C 
BRANCH  17  20
ATOM     20  C   UNL     1     100.440  93.646 105.089  1.00  0.00     0.010 A 
ATOM     21  C   UNL     1      99.720  93.264 103.957  1.00  0.00     0.011 A 
ATOM     22  C   UNL     1     101.830  93.532 105.104  1.00  0.00     0.011 A 
ATOM     23  C   UNL     1     100.391  92.770 102.839  1.00  0.00     0.001 A 
ATOM     24  C   UNL     1     102.500  93.038 103.984  1.00  0.00     0.001 A 
ATOM     25  C   UNL     1     101.781  92.656 102.852  1.00  0.00     0.000 A 
ENDBRANCH  17  20
ENDBRANCH  13  14
ENDBRANCH   1  13
TORSDOF 5
ENDMDL
MODEL 12
REMARK VINA RESULT:      -6.2      3.546      9.785
REMARK SMILES Cc1nc(-c2ccccc2)sc1CCNC(=O)c1cccc(Br)c1
REMARK SMILES IDX 14 1 15 2 16 3 17 4 18 6 22 7 24 8 21 9 20 10 19 11 23 12
REMARK SMILES IDX 13 13 12 14 11 15 2 16 4 17 3 18 1 19 5 20 6 21 10 22 7 23
REMARK SMILES IDX 9 24 8 25
REMARK H PARENT 15 5
ROOT
ATOM      1  C   UNL     1      97.555 107.957 109.354  1.00  0.00     0.122 C 
ENDROOT
BRANCH   1   2
ATOM      2  N   UNL     1      97.079 107.374 108.080  1.00  0.00    -0.352 N 
ATOM      3  C   UNL     1      97.935 106.718 107.238  1.00  0.00     0.251 C 
ATOM      4  O   UNL     1      99.136 106.540 107.421  1.00  0.00    -0.269 OA
ATOM      5  H   UNL     1      96.114 107.560 107.834  1.00  0.00     0.163 HD
BRANCH   3   6
ATOM      6  C   UNL     1      97.308 106.216 105.988  1.00  0.00     0.040 A 
ATOM      7  C   UNL     1      97.285 106.080 103.603  1.00  0.00     0.018 A 
ATOM      8  C   UNL     1      97.876 106.550 104.776  1.00  0.00     0.029 A 
ATOM      9  C   UNL     1      96.140 105.286 103.669  1.00  0.00     0.016 A 
ATOM     10  C   UNL     1      95.586 104.962 104.907  1.00  0.00     0.002 A 
ATOM     11  C   UNL     1      96.177 105.433 106.080  1.00  0.00     0.014 A 
ATOM     12  Br  UNL     1      98.038 106.515 101.925  1.00  0.00    -0.051 Br
ENDBRANCH   3   6
ENDBRANCH   1   2
BRANCH   1  13
ATOM     13  C   UNL     1      96.390 108.648 110.086  1.00  0.00     0.070 C 
BRANCH  13  14
ATOM     14  C   UNL     1      96.535 108.660 111.556  1.00  0.00     0.030 A 
ATOM     15  S   UNL     1      97.269 107.338 112.365  1.00  0.00    -0.119 S 
ATOM     16  C   UNL     1      96.161 109.616 112.478  1.00  0.00     0.052 A 
ATOM     17  C   UNL     1      97.025 108.146 113.859  1.00  0.00     0.123 A 
ATOM     18  N   UNL     1      96.440 109.323 113.799  1.00  0.00    -0.241 NA
ATOM     19  C   UNL     1      95.498 110.902 112.176  1.00  0.00     0.068 C 
BRANCH  17  20
ATOM     20  C   UNL     1      97.466 107.504 115.073  1.00  0.00     0.010 A 
ATOM     21  C   UNL     1      97.952 106.197 115.035  1.00  0.00     0.011 A 
ATOM     22  C   UNL     1      97.407 108.191 116.286  1.00  0.00     0.011 A 
ATOM     23  C   UNL     1      98.379 105.578 116.209  1.00  0.00     0.001 A 
ATOM     24  C   UNL     1      97.834 107.570 117.460  1.00  0.00     0.001 A 
ATOM     25  C   UNL     1      98.320 106.264 117.422  1.00  0.00     0.000 A 
ENDBRANCH  17  20
ENDBRANCH  13  14
ENDBRANCH   1  13
TORSDOF 5
ENDMDL
MODEL 13
REMARK VINA RESULT:      -6.1     12.732     15.420
REMARK SMILES Cc1nc(-c2ccccc2)sc1CCNC(=O)c1cccc(Br)c1
REMARK SMILES IDX 14 1 15 2 16 3 17 4 18 6 22 7 24 8 21 9 20 10 19 11 23 12
REMARK SMILES IDX 13 13 12 14 11 15 2 16 4 17 3 18 1 19 5 20 6 21 10 22 7 23
REMARK SMILES IDX 9 24 8 25
REMARK H PARENT 15 5
ROOT
ATOM      1  C   UNL     1      98.565  96.084 109.737  1.00  0.00     0.122 C 
ENDROOT
BRANCH   1   2
ATOM      2  N   UNL     1      99.245  95.496 108.561  1.00  0.00    -0.352 N 
ATOM      3  C   UNL     1      98.584  95.316 107.378  1.00  0.00     0.251 C 
ATOM      4  O   UNL     1      97.410  95.602 107.152  1.00  0.00    -0.269 OA
ATOM      5  H   UNL     1     100.191  95.165 108.710  1.00  0.00     0.163 HD
BRANCH   3   6
ATOM      6  C   UNL     1      99.398  94.690 106.304  1.00  0.00     0.040 A 
ATOM      7  C   UNL     1      99.629  93.999 104.030  1.00  0.00     0.018 A 
ATOM      8  C   UNL     1      98.865  94.589 105.036  1.00  0.00     0.029 A 
ATOM      9  C   UNL     1     100.909  93.523 104.314  1.00  0.00     0.016 A 
ATOM     10  C   UNL     1     101.425  93.637 105.605  1.00  0.00     0.002 A 
ATOM     11  C   UNL     1     100.660  94.227 106.612  1.00  0.00     0.014 A 
ATOM     12  Br  UNL     1      98.932  93.848 102.279  1.00  0.00    -0.051 Br
ENDBRANCH   3   6
ENDBRANCH   1   2
BRANCH   1  13
ATOM     13  C   UNL     1      98.726  95.158 110.958  1.00  0.00     0.070 C 
BRANCH  13  14
ATOM     14  C   UNL     1     100.132  94.831 111.273  1.00  0.00     0.030 A 
ATOM     15  S   UNL     1     101.208  96.055 111.806  1.00  0.00    -0.119 S 
ATOM     16  C   UNL     1     100.797  93.623 111.215  1.00  0.00     0.052 A 
ATOM     17  C   UNL     1     102.455  94.881 111.911  1.00  0.00     0.123 A 
ATOM     18  N   UNL     1     102.129  93.650 111.581  1.00  0.00    -0.241 NA
ATOM     19  C   UNL     1     100.214  92.329 110.803  1.00  0.00     0.068 C 
BRANCH  17  20
ATOM     20  C   UNL     1     103.764  95.299 112.348  1.00  0.00     0.010 A 
ATOM     21  C   UNL     1     104.904  94.707 111.806  1.00  0.00     0.011 A 
ATOM     22  C   UNL     1     103.890  96.298 113.315  1.00  0.00     0.011 A 
ATOM     23  C   UNL     1     106.169  95.113 112.229  1.00  0.00     0.001 A 
ATOM     24  C   UNL     1     105.156  96.703 113.737  1.00  0.00     0.001 A 
ATOM     25  C   UNL     1     106.296  96.111 113.195  1.00  0.00     0.000 A 
ENDBRANCH  17  20
ENDBRANCH  13  14
ENDBRANCH   1  13
TORSDOF 5
ENDMDL
MODEL 14
REMARK VINA RESULT:      -5.9     13.238     16.007
REMARK SMILES Cc1nc(-c2ccccc2)sc1CCNC(=O)c1cccc(Br)c1
REMARK SMILES IDX 14 1 15 2 16 3 17 4 18 6 22 7 24 8 21 9 20 10 19 11 23 12
REMARK SMILES IDX 13 13 12 14 11 15 2 16 4 17 3 18 1 19 5 20 6 21 10 22 7 23
REMARK SMILES IDX 9 24 8 25
REMARK H PARENT 15 5
ROOT
ATOM      1  C   UNL     1      99.625  94.844 112.209  1.00  0.00     0.122 C 
ENDROOT
BRANCH   1   2
ATOM      2  N   UNL     1      99.427  94.963 110.747  1.00  0.00    -0.352 N 
ATOM      3  C   UNL     1     100.010  94.081 109.879  1.00  0.00     0.251 C 
ATOM      4  O   UNL     1     100.730  93.133 110.184  1.00  0.00    -0.269 OA
ATOM      5  H   UNL     1      98.910  95.774 110.429  1.00  0.00     0.163 HD
BRANCH   3   6
ATOM      6  C   UNL     1      99.737  94.353 108.445  1.00  0.00     0.040 A 
ATOM      7  C   UNL     1     100.249  93.981 106.141  1.00  0.00     0.018 A 
ATOM      8  C   UNL     1     100.505  93.722 107.488  1.00  0.00     0.029 A 
ATOM      9  C   UNL     1      99.231  94.863 105.782  1.00  0.00     0.016 A 
ATOM     10  C   UNL     1      98.469  95.488 106.768  1.00  0.00     0.002 A 
ATOM     11  C   UNL     1      98.725  95.230 108.116  1.00  0.00     0.014 A 
ATOM     12  Br  UNL     1     101.279  93.131 104.803  1.00  0.00    -0.051 Br
ENDBRANCH   3   6
ENDBRANCH   1   2
BRANCH   1  13
ATOM     13  C   UNL     1     100.469  96.024 112.725  1.00  0.00     0.070 C 
BRANCH  13  14
ATOM     14  C   UNL     1     101.788  95.624 113.257  1.00  0.00     0.030 A 
ATOM     15  S   UNL     1     103.024  95.089 112.194  1.00  0.00    -0.119 S 
ATOM     16  C   UNL     1     102.252  95.598 114.556  1.00  0.00     0.052 A 
ATOM     17  C   UNL     1     104.059  94.870 113.545  1.00  0.00     0.123 A 
ATOM     18  N   UNL     1     103.554  95.166 114.723  1.00  0.00    -0.241 NA
ATOM     19  C   UNL     1     101.488  95.986 115.759  1.00  0.00     0.068 C 
BRANCH  17  20
ATOM     20  C   UNL     1     105.399  94.385 113.319  1.00  0.00     0.010 A 
ATOM     21  C   UNL     1     106.223  94.079 114.401  1.00  0.00     0.011 A 
ATOM     22  C   UNL     1     105.870  94.223 112.016  1.00  0.00     0.011 A 
ATOM     23  C   UNL     1     107.517  93.610 114.181  1.00  0.00     0.001 A 
ATOM     24  C   UNL     1     107.165  93.754 111.796  1.00  0.00     0.001 A 
ATOM     25  C   UNL     1     107.989  93.447 112.879  1.00  0.00     0.000 A 
ENDBRANCH  17  20
ENDBRANCH  13  14
ENDBRANCH   1  13
TORSDOF 5
ENDMDL
MODEL 15
REMARK VINA RESULT:      -5.9     12.672     13.467
REMARK SMILES Cc1nc(-c2ccccc2)sc1CCNC(=O)c1cccc(Br)c1
REMARK SMILES IDX 14 1 15 2 16 3 17 4 18 6 22 7 24 8 21 9 20 10 19 11 23 12
REMARK SMILES IDX 13 13 12 14 11 15 2 16 4 17 3 18 1 19 5 20 6 21 10 22 7 23
REMARK SMILES IDX 9 24 8 25
REMARK H PARENT 15 5
ROOT
ATOM      1  C   UNL     1      98.585  95.314 111.145  1.00  0.00     0.122 C 
ENDROOT
BRANCH   1   2
ATOM      2  N   UNL     1      99.950  95.752 111.516  1.00  0.00    -0.352 N 
ATOM      3  C   UNL     1     101.000  94.877 111.511  1.00  0.00     0.251 C 
ATOM      4  O   UNL     1     100.949  93.685 111.215  1.00  0.00    -0.269 OA
ATOM      5  H   UNL     1     100.040  96.705 111.849  1.00  0.00     0.163 HD
BRANCH   3   6
ATOM      6  C   UNL     1     102.297  95.465 111.934  1.00  0.00     0.040 A 
ATOM      7  C   UNL     1     104.638  95.219 112.339  1.00  0.00     0.018 A 
ATOM      8  C   UNL     1     103.422  94.666 111.939  1.00  0.00     0.029 A 
ATOM      9  C   UNL     1     104.702  96.558 112.723  1.00  0.00     0.016 A 
ATOM     10  C   UNL     1     103.551  97.345 112.709  1.00  0.00     0.002 A 
ATOM     11  C   UNL     1     102.334  96.791 112.309  1.00  0.00     0.014 A 
ATOM     12  Br  UNL     1     106.200  94.155 112.355  1.00  0.00    -0.051 Br
ENDBRANCH   3   6
ENDBRANCH   1   2
BRANCH   1  13
ATOM     13  C   UNL     1      98.167  95.961 109.812  1.00  0.00     0.070 C 
BRANCH  13  14
ATOM     14  C   UNL     1      98.408  95.103 108.634  1.00  0.00     0.030 A 
ATOM     15  S   UNL     1      99.891  95.203 107.778  1.00  0.00    -0.119 S 
ATOM     16  C   UNL     1      97.596  94.156 108.043  1.00  0.00     0.052 A 
ATOM     17  C   UNL     1      99.327  93.989 106.705  1.00  0.00     0.123 A 
ATOM     18  N   UNL     1      98.122  93.516 106.937  1.00  0.00    -0.241 NA
ATOM     19  C   UNL     1      96.239  93.777 108.487  1.00  0.00     0.068 C 
BRANCH  17  20
ATOM     20  C   UNL     1     100.189  93.561 105.630  1.00  0.00     0.010 A 
ATOM     21  C   UNL     1      99.648  92.930 104.511  1.00  0.00     0.011 A 
ATOM     22  C   UNL     1     101.565  93.778 105.712  1.00  0.00     0.011 A 
ATOM     23  C   UNL     1     100.483  92.517 103.472  1.00  0.00     0.001 A 
ATOM     24  C   UNL     1     102.399  93.365 104.673  1.00  0.00     0.001 A 
ATOM     25  C   UNL     1     101.858  92.734 103.553  1.00  0.00     0.000 A 
ENDBRANCH  17  20
ENDBRANCH  13  14
ENDBRANCH   1  13
TORSDOF 5
ENDMDL
