REMARK VINA RESULT:      -8.2      0.000      0.000
REMARK SMILES O=C(NCc1ccccc1)N1CCC(CN2CCc3ccccc3C2)CC1
REMARK SMILES IDX 1 1 11 2 3 3 14 4 13 5 26 6 12 7 27 8 2 9 4 11 5 12 6 13
REMARK SMILES IDX 10 14 7 15 9 16 8 17 15 18 16 19 17 20 25 21 18 22 24 23
REMARK SMILES IDX 19 24 23 25 20 26 22 27 21 28
REMARK H PARENT 3 10
ROOT
ATOM      1  O   UNL     1      98.328 105.655 106.981  1.00  0.00    -0.249 OA
ATOM      2  N   UNL     1      97.265 107.455 107.984  1.00  0.00    -0.325 N 
ATOM      3  N   UNL     1      96.278 106.292 106.176  1.00  0.00    -0.334 N 
ATOM      4  C   UNL     1      96.659 108.543 110.600  1.00  0.00     0.006 C 
ATOM      5  C   UNL     1      95.571 108.334 109.533  1.00  0.00     0.026 C 
ATOM      6  C   UNL     1      97.828 107.571 110.374  1.00  0.00     0.026 C 
ATOM      7  C   UNL     1      96.162 108.414 108.127  1.00  0.00     0.121 C 
ATOM      8  C   UNL     1      98.355 107.657 108.941  1.00  0.00     0.121 C 
ATOM      9  C   UNL     1      97.357 106.417 107.042  1.00  0.00     0.317 C 
ATOM     10  H   UNL     1      95.459 106.876 106.259  1.00  0.00     0.165 HD
ENDROOT
BRANCH   3  11
ATOM     11  C   UNL     1      96.226 105.269 105.155  1.00  0.00     0.153 C 
BRANCH  11  12
ATOM     12  C   UNL     1      96.511 105.821 103.790  1.00  0.00    -0.029 A 
ATOM     13  C   UNL     1      95.455 106.189 102.962  1.00  0.00     0.005 A 
ATOM     14  C   UNL     1      97.827 105.962 103.365  1.00  0.00     0.005 A 
ATOM     15  C   UNL     1      95.720 106.703 101.693  1.00  0.00     0.000 A 
ATOM     16  C   UNL     1      98.092 106.476 102.096  1.00  0.00     0.000 A 
ATOM     17  C   UNL     1      97.038 106.847 101.260  1.00  0.00     0.000 A 
ENDBRANCH  11  12
ENDBRANCH   3  11
BRANCH   4  18
ATOM     18  C   UNL     1      96.081 108.381 112.004  1.00  0.00     0.088 C 
BRANCH  18  19
ATOM     19  N   UNL     1      96.991 107.618 112.858  1.00  0.00    -0.298 NA
ATOM     20  C   UNL     1      97.102 108.235 114.185  1.00  0.00     0.089 C 
ATOM     21  C   UNL     1      96.533 106.224 112.980  1.00  0.00     0.120 C 
ATOM     22  C   UNL     1      98.211 107.548 114.988  1.00  0.00     0.051 C 
ATOM     23  C   UNL     1      97.346 105.409 113.960  1.00  0.00    -0.031 A 
ATOM     24  C   UNL     1      98.115 106.045 114.950  1.00  0.00    -0.042 A 
ATOM     25  C   UNL     1      97.287 104.010 113.924  1.00  0.00     0.005 A 
ATOM     26  C   UNL     1      98.843 105.272 115.865  1.00  0.00     0.004 A 
ATOM     27  C   UNL     1      98.007 103.249 114.845  1.00  0.00     0.000 A 
ATOM     28  C   UNL     1      98.786 103.880 115.813  1.00  0.00     0.000 A 
ENDBRANCH  18  19
ENDBRANCH   4  18
TORSDOF 4
