REMARK VINA RESULT:      -8.3      0.000      0.000
REMARK SMILES C=C1C=C(N[C@@H]2CCc3ccccc32)C=CN1/N=C(\C)c1ccccc1
REMARK SMILES IDX 17 1 4 2 3 3 15 4 2 5 16 6 1 7 5 8 6 10 7 11 14 12 8 13 9 14
REMARK SMILES IDX 13 15 10 16 12 17 11 18 18 19 19 20 20 21 21 22 22 23 26 24
REMARK SMILES IDX 23 25 25 26 24 27
REMARK H PARENT 5 9
ROOT
ATOM      1  N   UNL     1      97.421 107.727 107.383  1.00  0.00    -0.241 N 
ATOM      2  C   UNL     1      97.414 107.849 110.213  1.00  0.00     0.038 C 
ATOM      3  C   UNL     1      98.434 107.244 109.565  1.00  0.00     0.053 C 
ATOM      4  C   UNL     1      96.337 108.427 109.418  1.00  0.00     0.046 C 
ATOM      5  C   UNL     1      98.491 107.150 108.098  1.00  0.00     0.059 C 
ATOM      6  C   UNL     1      96.388 108.343 108.080  1.00  0.00     0.115 C 
ATOM      7  C   UNL     1      99.557 106.525 107.563  1.00  0.00     0.039 C 
ENDROOT
BRANCH   2   8
ATOM      8  N   UNL     1      97.333 107.951 111.564  1.00  0.00    -0.378 N 
ATOM      9  H   UNL     1      98.065 108.468 112.042  1.00  0.00     0.161 HD
BRANCH   8  10
ATOM     10  C   UNL     1      96.327 107.288 112.359  1.00  0.00     0.110 C 
ATOM     11  C   UNL     1      95.526 108.305 113.193  1.00  0.00     0.034 C 
ATOM     12  C   UNL     1      96.960 106.466 113.442  1.00  0.00    -0.023 A 
ATOM     13  C   UNL     1      96.272 108.478 114.528  1.00  0.00     0.038 C 
ATOM     14  C   UNL     1      96.922 107.138 114.672  1.00  0.00    -0.043 A 
ATOM     15  C   UNL     1      97.549 105.216 113.333  1.00  0.00     0.006 A 
ATOM     16  C   UNL     1      97.479 106.579 115.809  1.00  0.00     0.004 A 
ATOM     17  C   UNL     1      98.103 104.640 114.477  1.00  0.00     0.000 A 
ATOM     18  C   UNL     1      98.068 105.317 115.707  1.00  0.00     0.000 A 
ENDBRANCH   8  10
ENDBRANCH   2   8
BRANCH   1  19
ATOM     19  N   UNL     1      97.343 107.713 106.021  1.00  0.00    -0.173 NA
ATOM     20  C   UNL     1      96.792 106.680 105.458  1.00  0.00     0.065 C 
ATOM     21  C   UNL     1      96.198 105.506 106.214  1.00  0.00     0.069 C 
BRANCH  20  22
ATOM     22  C   UNL     1      96.737 106.641 103.970  1.00  0.00    -0.003 A 
ATOM     23  C   UNL     1      95.505 106.631 103.317  1.00  0.00     0.010 A 
ATOM     24  C   UNL     1      97.919 106.613 103.230  1.00  0.00     0.010 A 
ATOM     25  C   UNL     1      95.455 106.596 101.923  1.00  0.00     0.001 A 
ATOM     26  C   UNL     1      97.869 106.578 101.837  1.00  0.00     0.001 A 
ATOM     27  C   UNL     1      96.637 106.568 101.183  1.00  0.00     0.000 A 
ENDBRANCH  20  22
ENDBRANCH   1  19
TORSDOF 4
