REMARK VINA RESULT:      -8.2      0.000      0.000
REMARK SMILES O=C1C[C@@H](C(=O)NCc2ccc3c(c2)OCCO3)c2ccccc2N1
REMARK SMILES IDX 6 1 7 2 5 3 4 5 3 6 19 7 2 8 24 9 20 10 1 11 25 12 23 13
REMARK SMILES IDX 21 14 22 15 8 17 9 18 14 19 10 20 13 21 11 22 15 23 12 24
REMARK SMILES IDX 16 25 18 26 17 27
REMARK H PARENT 7 4 25 16
ROOT
ATOM      1  O   UNL     1      95.655 108.600 105.425  1.00  0.00    -0.274 OA
ATOM      2  N   UNL     1      96.150 107.749 107.534  1.00  0.00    -0.351 N 
ATOM      3  C   UNL     1      96.009 107.681 106.159  1.00  0.00     0.228 C 
ATOM      4  H   UNL     1      96.479 106.934 108.043  1.00  0.00     0.163 HD
ENDROOT
BRANCH   3   5
ATOM      5  C   UNL     1      96.366 106.329 105.618  1.00  0.00     0.120 C 
ATOM      6  C   UNL     1      97.586 105.778 106.351  1.00  0.00     0.118 C 
ATOM      7  C   UNL     1      96.580 106.385 104.131  1.00  0.00    -0.011 A 
ATOM      8  C   UNL     1      98.915 106.295 105.831  1.00  0.00     0.225 C 
ATOM      9  C   UNL     1      97.874 106.522 103.615  1.00  0.00     0.045 A 
ATOM     10  C   UNL     1      95.492 106.372 103.248  1.00  0.00     0.007 A 
ATOM     11  O   UNL     1      99.892 106.390 106.576  1.00  0.00    -0.275 OA
ATOM     12  N   UNL     1      98.982 106.550 104.478  1.00  0.00    -0.326 N 
ATOM     13  C   UNL     1      98.079 106.659 102.240  1.00  0.00     0.026 A 
ATOM     14  C   UNL     1      95.698 106.491 101.873  1.00  0.00     0.000 A 
ATOM     15  C   UNL     1      96.989 106.636 101.370  1.00  0.00     0.002 A 
ATOM     16  H   UNL     1      99.887 106.778 104.078  1.00  0.00     0.169 HD
ENDBRANCH   3   5
BRANCH   2  17
ATOM     17  C   UNL     1      95.890 108.949 108.297  1.00  0.00     0.151 C 
BRANCH  17  18
ATOM     18  C   UNL     1      96.328 108.811 109.726  1.00  0.00    -0.025 A 
ATOM     19  C   UNL     1      95.691 109.551 110.723  1.00  0.00     0.056 A 
ATOM     20  C   UNL     1      97.372 107.947 110.055  1.00  0.00     0.009 A 
ATOM     21  C   UNL     1      96.105 109.427 112.050  1.00  0.00     0.161 A 
ATOM     22  C   UNL     1      97.777 107.813 111.384  1.00  0.00     0.051 A 
ATOM     23  O   UNL     1      95.455 110.195 112.981  1.00  0.00    -0.486 OA
ATOM     24  C   UNL     1      97.133 108.542 112.383  1.00  0.00     0.161 A 
ATOM     25  C   UNL     1      96.171 110.253 114.218  1.00  0.00     0.271 C 
ATOM     26  O   UNL     1      97.561 108.352 113.670  1.00  0.00    -0.486 OA
ATOM     27  C   UNL     1      96.628 108.866 114.624  1.00  0.00     0.271 C 
ENDBRANCH  17  18
ENDBRANCH   2  17
TORSDOF 3
