REMARK VINA RESULT:      -8.4      0.000      0.000
REMARK SMILES O=C(/C=C/c1ccccc1Cl)N1CCN(c2ccc3ccccc3n2)CC1
REMARK SMILES IDX 3 1 4 2 5 3 10 4 9 5 6 6 8 7 7 8 11 9 2 10 1 11 12 12 13 13
REMARK SMILES IDX 27 14 14 15 26 16 15 17 16 18 25 19 17 20 24 21 18 22 19 23
REMARK SMILES IDX 23 24 20 25 22 26 21 27
REMARK H PARENT
ROOT
ATOM      1  C   UNL     1      97.331 107.587 112.340  1.00  0.00     0.072 C 
ATOM      2  C   UNL     1      96.787 106.551 112.992  1.00  0.00     0.015 C 
ENDROOT
BRANCH   2   3
ATOM      3  C   UNL     1      97.466 105.767 114.039  1.00  0.00    -0.007 A 
ATOM      4  C   UNL     1      97.819 106.320 115.269  1.00  0.00     0.048 A 
ATOM      5  C   UNL     1      98.461 105.536 116.228  1.00  0.00     0.021 A 
ATOM      6  C   UNL     1      97.755 104.430 113.766  1.00  0.00     0.009 A 
ATOM      7  C   UNL     1      98.749 104.198 115.955  1.00  0.00     0.002 A 
ATOM      8  C   UNL     1      98.397 103.645 114.724  1.00  0.00     0.001 A 
ATOM      9  Cl  UNL     1      97.485 107.971 115.660  1.00  0.00    -0.084 Cl
ENDBRANCH   2   3
BRANCH   1  10
ATOM     10  C   UNL     1      96.516 108.282 111.322  1.00  0.00     0.246 C 
ATOM     11  O   UNL     1      95.565 108.962 111.706  1.00  0.00    -0.270 OA
ATOM     12  N   UNL     1      96.882 108.107 109.988  1.00  0.00    -0.336 N 
ATOM     13  C   UNL     1      96.100 108.766 108.944  1.00  0.00     0.141 C 
ATOM     14  C   UNL     1      98.016 107.297 109.531  1.00  0.00     0.141 C 
ATOM     15  C   UNL     1      95.988 107.899 107.692  1.00  0.00     0.139 C 
ATOM     16  C   UNL     1      98.452 107.625 108.102  1.00  0.00     0.139 C 
ATOM     17  N   UNL     1      97.317 107.552 107.181  1.00  0.00    -0.353 N 
BRANCH  17  18
ATOM     18  C   UNL     1      97.496 107.226 105.838  1.00  0.00     0.129 A 
ATOM     19  N   UNL     1      96.421 107.245 105.018  1.00  0.00    -0.231 NA
ATOM     20  C   UNL     1      98.776 106.903 105.431  1.00  0.00     0.047 A 
ATOM     21  C   UNL     1      96.603 106.930 103.722  1.00  0.00     0.073 A 
ATOM     22  C   UNL     1      98.959 106.579 104.095  1.00  0.00     0.014 A 
ATOM     23  C   UNL     1      97.872 106.585 103.211  1.00  0.00     0.000 A 
ATOM     24  C   UNL     1      95.523 106.937 102.844  1.00  0.00     0.029 A 
ATOM     25  C   UNL     1      98.026 106.261 101.852  1.00  0.00     0.010 A 
ATOM     26  C   UNL     1      95.676 106.614 101.493  1.00  0.00     0.002 A 
ATOM     27  C   UNL     1      96.929 106.276 100.996  1.00  0.00     0.001 A 
ENDBRANCH  17  18
ENDBRANCH   1  10
TORSDOF 3
