REMARK VINA RESULT:      -8.5      0.000      0.000
REMARK SMILES CN1C(=O)[C@]2(C(C#N)=C(N)Oc3n[nH]c(-c4ccccc4)c32)c2ccccc21
REMARK SMILES IDX 11 1 4 2 2 3 14 4 13 5 8 6 5 7 23 8 22 9 3 10 28 11 6 12
REMARK SMILES IDX 15 13 12 14 24 15 9 16 27 17 1 18 25 19 26 20 7 21 10 23
REMARK SMILES IDX 16 26 17 27 21 28 18 29 20 30 19 31
REMARK H PARENT 14 22 10 24 10 25
ROOT
ATOM      1  O   UNL     1     107.759  93.477 115.253  1.00  0.00    -0.420 OA
ATOM      2  O   UNL     1     106.402  97.071 113.362  1.00  0.00    -0.273 OA
ATOM      3  N   UNL     1     104.318  96.349 112.518  1.00  0.00    -0.314 N 
ATOM      4  N   UNL     1     105.357  94.704 117.283  1.00  0.00    -0.274 N 
ATOM      5  N   UNL     1     106.529  94.052 117.138  1.00  0.00    -0.136 NA
ATOM      6  N   UNL     1     107.213  94.053 110.480  1.00  0.00    -0.193 NA
ATOM      7  C   UNL     1     105.654  94.737 113.629  1.00  0.00     0.149 C 
ATOM      8  C   UNL     1     104.353  94.148 113.143  1.00  0.00     0.001 A 
ATOM      9  C   UNL     1     105.635  94.656 115.110  1.00  0.00     0.067 A 
ATOM     10  C   UNL     1     105.555  96.211 113.171  1.00  0.00     0.247 C 
ATOM     11  C   UNL     1     103.609  95.139 112.496  1.00  0.00     0.048 A 
ATOM     12  C   UNL     1     106.910  94.075 113.056  1.00  0.00     0.114 C 
ATOM     13  C   UNL     1     104.785  95.094 116.099  1.00  0.00     0.074 A 
ATOM     14  C   UNL     1     106.675  94.041 115.815  1.00  0.00     0.245 A 
ATOM     15  C   UNL     1     103.868  92.852 113.240  1.00  0.00     0.008 A 
ATOM     16  C   UNL     1     107.863  93.506 113.849  1.00  0.00     0.208 C 
ATOM     17  C   UNL     1     102.367  94.875 111.943  1.00  0.00     0.027 A 
ATOM     18  C   UNL     1     103.839  97.582 111.941  1.00  0.00     0.153 C 
ATOM     19  C   UNL     1     102.617  92.569 112.687  1.00  0.00     0.001 A 
ATOM     20  C   UNL     1     101.873  93.573 112.045  1.00  0.00     0.002 A 
ATOM     21  C   UNL     1     107.077  94.063 111.632  1.00  0.00     0.102 C 
ATOM     22  H   UNL     1     105.008  94.854 118.221  1.00  0.00     0.190 HD
ENDROOT
BRANCH  16  23
ATOM     23  N   UNL     1     109.003  92.905 113.383  1.00  0.00    -0.369 N 
ATOM     24  H   UNL     1     109.850  92.975 113.933  1.00  0.00     0.159 HD
ATOM     25  H   UNL     1     109.005  92.400 112.507  1.00  0.00     0.159 HD
ENDBRANCH  16  23
BRANCH  13  26
ATOM     26  C   UNL     1     103.540  95.819 116.056  1.00  0.00     0.000 A 
ATOM     27  C   UNL     1     103.544  97.215 116.041  1.00  0.00     0.010 A 
ATOM     28  C   UNL     1     102.330  95.125 116.030  1.00  0.00     0.010 A 
ATOM     29  C   UNL     1     102.339  97.916 116.001  1.00  0.00     0.001 A 
ATOM     30  C   UNL     1     101.124  95.827 115.990  1.00  0.00     0.001 A 
ATOM     31  C   UNL     1     101.129  97.221 115.975  1.00  0.00     0.000 A 
ENDBRANCH  13  26
TORSDOF 2
