REMARK VINA RESULT:      -8.9      0.000      0.000
REMARK SMILES CC1=CC(C)(C)N(C)c2cc(C)c(C=NNC(=O)COc3cccc4cccnc34)cc21
REMARK SMILES IDX 18 1 16 2 17 3 19 5 20 6 21 7 30 8 22 9 29 10 25 11 23 12
REMARK SMILES IDX 28 13 24 14 26 15 27 16 15 17 14 18 13 19 31 20 11 21 32 22
REMARK SMILES IDX 10 23 9 24 2 25 7 26 3 27 4 28 12 29 1 30 8 31 5 32 6 33
REMARK H PARENT 16 4
ROOT
ATOM      1  O   UNL     1     111.352  94.653 118.935  1.00  0.00    -0.269 OA
ATOM      2  N   UNL     1     109.317  94.839 120.036  1.00  0.00    -0.244 N 
ATOM      3  C   UNL     1     110.687  94.984 119.914  1.00  0.00     0.277 C 
ATOM      4  H   UNL     1     108.805  95.126 120.865  1.00  0.00     0.193 HD
ENDROOT
BRANCH   3   5
ATOM      5  C   UNL     1     111.293  95.611 121.148  1.00  0.00     0.331 C 
BRANCH   5   6
ATOM      6  O   UNL     1     112.222  94.718 121.727  1.00  0.00    -0.481 OA
BRANCH   6   7
ATOM      7  C   UNL     1     113.361  95.263 122.270  1.00  0.00     0.146 A 
ATOM      8  C   UNL     1     114.613  94.862 121.813  1.00  0.00     0.112 A 
ATOM      9  C   UNL     1     113.221  96.218 123.280  1.00  0.00     0.049 A 
ATOM     10  N   UNL     1     114.712  93.939 120.837  1.00  0.00    -0.252 NA
ATOM     11  C   UNL     1     115.753  95.450 122.399  1.00  0.00     0.004 A 
ATOM     12  C   UNL     1     114.349  96.793 123.854  1.00  0.00     0.005 A 
ATOM     13  C   UNL     1     115.948  93.577 120.422  1.00  0.00     0.112 A 
ATOM     14  C   UNL     1     115.612  96.411 123.415  1.00  0.00     0.010 A 
ATOM     15  C   UNL     1     117.015  95.046 121.940  1.00  0.00     0.012 A 
ATOM     16  C   UNL     1     117.120  94.095 120.935  1.00  0.00     0.021 A 
ENDBRANCH   6   7
ENDBRANCH   5   6
ENDBRANCH   3   5
BRANCH   2  17
ATOM     17  N   UNL     1     108.626  94.292 119.010  1.00  0.00    -0.181 NA
ATOM     18  C   UNL     1     107.330  94.361 119.133  1.00  0.00     0.141 C 
BRANCH  18  19
ATOM     19  C   UNL     1     106.418  93.827 118.131  1.00  0.00    -0.002 A 
ATOM     20  C   UNL     1     106.866  93.667 116.823  1.00  0.00     0.020 A 
ATOM     21  C   UNL     1     105.119  93.477 118.452  1.00  0.00    -0.040 A 
ATOM     22  C   UNL     1     106.023  93.155 115.814  1.00  0.00     0.001 A 
ATOM     23  C   UNL     1     104.273  92.969 117.465  1.00  0.00     0.030 A 
ATOM     24  C   UNL     1     104.690  92.793 116.124  1.00  0.00     0.045 A 
ATOM     25  C   UNL     1     106.524  92.997 114.435  1.00  0.00    -0.043 C 
ATOM     26  N   UNL     1     103.827  92.283 115.147  1.00  0.00    -0.365 N 
ATOM     27  C   UNL     1     105.690  92.507 113.508  1.00  0.00     0.004 C 
ATOM     28  C   UNL     1     104.256  92.094 113.742  1.00  0.00     0.053 C 
ATOM     29  C   UNL     1     104.598  93.632 119.844  1.00  0.00     0.045 C 
ATOM     30  C   UNL     1     107.934  93.373 114.078  1.00  0.00     0.045 C 
ATOM     31  C   UNL     1     102.458  91.924 115.526  1.00  0.00     0.144 C 
ATOM     32  C   UNL     1     104.146  90.605 113.361  1.00  0.00     0.039 C 
ATOM     33  C   UNL     1     103.380  92.954 112.811  1.00  0.00     0.039 C 
ENDBRANCH  18  19
ENDBRANCH   2  17
TORSDOF 5
