REMARK VINA RESULT:      -9.1      0.000      0.000
REMARK SMILES O=C1CC[C@@H](N2C(=O)[C@@H]3[C@H]4c5ccccc5[C@H](c5ccccc54)[C@H]3C2=O)C(=O)N1
REMARK SMILES IDX 28 1 1 2 29 3 5 4 4 5 27 6 3 7 2 8 6 10 8 11 7 12 9 13 25 14
REMARK SMILES IDX 24 15 10 16 26 17 17 18 23 19 11 20 18 21 16 22 22 23 12 24
REMARK SMILES IDX 19 25 15 26 21 27 13 28 20 29 14 30
REMARK H PARENT 29 9
ROOT
ATOM      1  O   UNL     1     114.954 100.735 119.853  1.00  0.00    -0.272 OA
ATOM      2  O   UNL     1     115.949 105.167 119.105  1.00  0.00    -0.275 OA
ATOM      3  N   UNL     1     115.500 102.941 119.493  1.00  0.00    -0.295 N 
ATOM      4  C   UNL     1     117.062 101.194 118.763  1.00  0.00     0.183 C 
ATOM      5  C   UNL     1     118.116 102.273 118.953  1.00  0.00     0.046 C 
ATOM      6  C   UNL     1     115.759 101.572 119.444  1.00  0.00     0.249 C 
ATOM      7  C   UNL     1     117.600 103.587 118.394  1.00  0.00     0.103 C 
ATOM      8  C   UNL     1     116.296 103.988 119.040  1.00  0.00     0.226 C 
ATOM      9  H   UNL     1     114.616 103.209 119.919  1.00  0.00     0.172 HD
ENDROOT
BRANCH   4  10
ATOM     10  N   UNL     1     117.506  99.938 119.306  1.00  0.00    -0.269 N 
ATOM     11  O   UNL     1     118.120 100.594 121.517  1.00  0.00    -0.274 OA
ATOM     12  C   UNL     1     117.907  99.769 120.648  1.00  0.00     0.234 C 
ATOM     13  C   UNL     1     117.892  98.275 120.798  1.00  0.00     0.104 C 
ATOM     14  C   UNL     1     117.585  98.749 118.552  1.00  0.00     0.234 C 
ATOM     15  C   UNL     1     118.452  97.881 119.417  1.00  0.00     0.104 C 
ATOM     16  C   UNL     1     118.489  97.345 121.872  1.00  0.00     0.063 C 
ATOM     17  O   UNL     1     117.161  98.494 117.439  1.00  0.00    -0.274 OA
ATOM     18  C   UNL     1     118.734  96.367 119.398  1.00  0.00     0.063 C 
ATOM     19  C   UNL     1     117.642  96.077 121.613  1.00  0.00    -0.036 A 
ATOM     20  C   UNL     1     119.917  96.932 121.514  1.00  0.00    -0.036 A 
ATOM     21  C   UNL     1     117.729  95.605 120.263  1.00  0.00    -0.036 A 
ATOM     22  C   UNL     1     120.047  96.340 120.216  1.00  0.00    -0.036 A 
ATOM     23  C   UNL     1     116.822  95.447 122.537  1.00  0.00     0.004 A 
ATOM     24  C   UNL     1     121.016  97.029 122.352  1.00  0.00     0.004 A 
ATOM     25  C   UNL     1     116.991  94.504 119.857  1.00  0.00     0.004 A 
ATOM     26  C   UNL     1     121.268  95.855 119.773  1.00  0.00     0.004 A 
ATOM     27  C   UNL     1     116.083  94.339 122.117  1.00  0.00     0.000 A 
ATOM     28  C   UNL     1     122.246  96.542 121.900  1.00  0.00     0.000 A 
ATOM     29  C   UNL     1     116.163  93.876 120.792  1.00  0.00     0.000 A 
ATOM     30  C   UNL     1     122.369  95.960 120.626  1.00  0.00     0.000 A 
ENDBRANCH   4  10
TORSDOF 1
