REMARK VINA RESULT:      -9.0      0.000      0.000
REMARK SMILES NC(=O)c1c(N)nn2ccc(N3C[C@@H](F)C[C@@H]3c3cc(F)ccc3F)nc12
REMARK SMILES IDX 4 1 5 2 7 3 8 4 9 5 10 6 11 7 26 8 27 9 2 10 1 11 3 12 6 15
REMARK SMILES IDX 12 18 13 19 17 20 14 21 16 22 15 23 18 24 19 25 24 26 20 27
REMARK SMILES IDX 23 28 22 29 25 30 21 31
REMARK H PARENT 1 13 1 14 6 16 6 17
ROOT
ATOM      1  C   UNL     1     115.786  94.794 122.740  1.00  0.00     0.128 A 
ATOM      2  C   UNL     1     115.083  95.127 123.905  1.00  0.00     0.161 A 
ATOM      3  N   UNL     1     115.800  95.977 124.678  1.00  0.00    -0.148 NA
ATOM      4  N   UNL     1     116.933  96.194 124.033  1.00  0.00    -0.219 N 
ATOM      5  C   UNL     1     117.947  97.002 124.421  1.00  0.00     0.119 A 
ATOM      6  C   UNL     1     119.056  97.120 123.573  1.00  0.00     0.067 A 
ATOM      7  C   UNL     1     119.071  96.395 122.353  1.00  0.00     0.133 A 
ATOM      8  N   UNL     1     118.004  95.604 122.028  1.00  0.00    -0.211 NA
ATOM      9  C   UNL     1     116.957  95.510 122.885  1.00  0.00     0.172 A 
ENDROOT
BRANCH   1  10
ATOM     10  C   UNL     1     115.366  93.937 121.611  1.00  0.00     0.256 C 
ATOM     11  N   UNL     1     116.071  93.956 120.368  1.00  0.00    -0.365 N 
ATOM     12  O   UNL     1     114.367  93.181 121.736  1.00  0.00    -0.269 OA
ATOM     13  H   UNL     1     116.890  94.570 120.249  1.00  0.00     0.159 HD
ATOM     14  H   UNL     1     115.759  93.356 119.592  1.00  0.00     0.159 HD
ENDBRANCH   1  10
BRANCH   2  15
ATOM     15  N   UNL     1     113.798  94.633 124.288  1.00  0.00    -0.381 N 
ATOM     16  H   UNL     1     113.060  95.290 124.578  1.00  0.00     0.158 HD
ATOM     17  H   UNL     1     113.612  93.620 124.274  1.00  0.00     0.158 HD
ENDBRANCH   2  15
BRANCH   7  18
ATOM     18  N   UNL     1     120.187  96.480 121.444  1.00  0.00    -0.346 N 
ATOM     19  C   UNL     1     121.565  96.461 121.906  1.00  0.00     0.156 C 
ATOM     20  C   UNL     1     120.087  96.522 119.987  1.00  0.00     0.120 C 
ATOM     21  C   UNL     1     122.417  96.252 120.660  1.00  0.00     0.188 C 
ATOM     22  C   UNL     1     121.528  96.638 119.480  1.00  0.00     0.069 C 
ATOM     23  F   UNL     1     122.776  94.917 120.556  1.00  0.00    -0.245 F 
BRANCH  20  24
ATOM     24  C   UNL     1     119.244  97.693 119.514  1.00  0.00     0.013 A 
ATOM     25  C   UNL     1     119.636  99.017 119.793  1.00  0.00     0.048 A 
ATOM     26  C   UNL     1     118.083  97.472 118.747  1.00  0.00     0.128 A 
ATOM     27  C   UNL     1     118.868 100.093 119.344  1.00  0.00     0.123 A 
ATOM     28  C   UNL     1     117.319  98.555 118.299  1.00  0.00     0.042 A 
ATOM     29  C   UNL     1     117.708  99.863 118.600  1.00  0.00     0.042 A 
ATOM     30  F   UNL     1     117.688  96.213 118.431  1.00  0.00    -0.207 F 
ATOM     31  F   UNL     1     119.250 101.363 119.627  1.00  0.00    -0.207 F 
ENDBRANCH  20  24
ENDBRANCH   7  18
TORSDOF 4
