REMARK VINA RESULT:      -9.0      0.000      0.000
REMARK SMILES CCOc1ccc(Cl)cc1/C=N/N1C(=O)[C@@H]2[C@H]3c4ccccc4[C@H](c4ccccc43)[C@@H]2C1=O
REMARK SMILES IDX 8 1 10 2 4 3 9 4 5 5 7 6 6 7 11 8 12 9 13 10 32 11 14 12
REMARK SMILES IDX 33 13 31 14 15 15 16 16 24 17 17 18 23 19 25 20 18 21 30 22
REMARK SMILES IDX 22 23 26 24 19 25 29 26 21 27 27 28 20 29 28 30 3 31 2 32
REMARK SMILES IDX 1 33
REMARK H PARENT
ROOT
ATOM      1  Cl  UNL     1     110.905 101.560 122.082  1.00  0.00    -0.084 Cl
ATOM      2  C   UNL     1     114.333 101.628 120.045  1.00  0.00     0.038 A 
ATOM      3  C   UNL     1     114.108 102.599 119.081  1.00  0.00     0.128 A 
ATOM      4  C   UNL     1     113.357 101.299 120.973  1.00  0.00     0.034 A 
ATOM      5  C   UNL     1     112.878 103.256 119.044  1.00  0.00     0.048 A 
ATOM      6  C   UNL     1     112.127 101.956 120.936  1.00  0.00     0.041 A 
ATOM      7  C   UNL     1     111.888 102.935 119.972  1.00  0.00     0.024 A 
ENDROOT
BRANCH   2   8
ATOM      8  C   UNL     1     115.625 100.922 120.102  1.00  0.00     0.146 C 
ATOM      9  N   UNL     1     115.701  99.632 120.121  1.00  0.00    -0.170 NA
BRANCH   9  10
ATOM     10  N   UNL     1     116.961  99.169 120.175  1.00  0.00    -0.166 N 
ATOM     11  C   UNL     1     117.683  99.143 121.346  1.00  0.00     0.254 C 
ATOM     12  C   UNL     1     117.579  98.653 119.059  1.00  0.00     0.254 C 
ATOM     13  O   UNL     1     117.332  99.504 122.460  1.00  0.00    -0.272 OA
ATOM     14  C   UNL     1     119.037  98.555 121.016  1.00  0.00     0.106 C 
ATOM     15  O   UNL     1     117.129  98.535 117.929  1.00  0.00    -0.272 OA
ATOM     16  C   UNL     1     118.968  98.226 119.483  1.00  0.00     0.106 C 
ATOM     17  C   UNL     1     119.373  97.269 121.826  1.00  0.00     0.063 C 
ATOM     18  C   UNL     1     119.257  96.716 119.244  1.00  0.00     0.063 C 
ATOM     19  C   UNL     1     120.700  96.780 121.246  1.00  0.00    -0.036 A 
ATOM     20  C   UNL     1     118.323  96.219 121.471  1.00  0.00    -0.036 A 
ATOM     21  C   UNL     1     120.638  96.482 119.856  1.00  0.00    -0.036 A 
ATOM     22  C   UNL     1     118.260  95.922 120.085  1.00  0.00    -0.036 A 
ATOM     23  C   UNL     1     121.883  96.616 121.952  1.00  0.00     0.004 A 
ATOM     24  C   UNL     1     117.480  95.581 122.369  1.00  0.00     0.004 A 
ATOM     25  C   UNL     1     121.758  96.023 119.180  1.00  0.00     0.004 A 
ATOM     26  C   UNL     1     117.355  94.988 119.602  1.00  0.00     0.004 A 
ATOM     27  C   UNL     1     123.009  96.155 121.265  1.00  0.00     0.000 A 
ATOM     28  C   UNL     1     116.568  94.644 121.880  1.00  0.00     0.000 A 
ATOM     29  C   UNL     1     122.947  95.861 119.894  1.00  0.00     0.000 A 
ATOM     30  C   UNL     1     116.506  94.350 120.509  1.00  0.00     0.000 A 
ENDBRANCH   9  10
ENDBRANCH   2   8
BRANCH   3  31
ATOM     31  O   UNL     1     115.064 102.928 118.166  1.00  0.00    -0.493 OA
BRANCH  31  32
ATOM     32  C   UNL     1     114.680 103.818 117.120  1.00  0.00     0.226 C 
ATOM     33  C   UNL     1     115.837 103.974 116.157  1.00  0.00     0.049 C 
ENDBRANCH  31  32
ENDBRANCH   3  31
TORSDOF 4
