MODEL 1
REMARK VINA RESULT:      -8.0      0.000      0.000
REMARK SMILES O=C1c2ccccc2C(=O)C1c1ccc(Cl)cc1
REMARK SMILES IDX 12 1 13 2 14 3 15 4 16 5 17 6 18 7 11 8 1 9 2 10 3 11 4 12
REMARK SMILES IDX 8 13 9 14 5 15 7 16 10 17 6 18
REMARK H PARENT
ROOT
ATOM      1  C   UNL     1      97.805 106.279 107.046  1.00  0.00    -0.029 A 
ATOM      2  C   UNL     1      98.799 106.167 108.038  1.00  0.00     0.006 A 
ATOM      3  C   UNL     1      98.762 106.983 109.173  1.00  0.00     0.021 A 
ATOM      4  C   UNL     1      97.734 107.918 109.331  1.00  0.00     0.041 A 
ATOM      5  Cl  UNL     1      97.690 108.942 110.754  1.00  0.00    -0.084 Cl
ATOM      6  C   UNL     1      96.743 108.038 108.351  1.00  0.00     0.021 A 
ATOM      7  C   UNL     1      96.777 107.223 107.215  1.00  0.00     0.006 A 
ENDROOT
BRANCH   1   8
ATOM      8  C   UNL     1      97.830 105.405 105.812  1.00  0.00     0.163 C 
ATOM      9  O   UNL     1      99.842 106.315 104.744  1.00  0.00    -0.293 OA
ATOM     10  C   UNL     1      98.615 106.038 104.694  1.00  0.00     0.178 C 
ATOM     11  C   UNL     1      97.758 106.269 103.538  1.00  0.00     0.029 A 
ATOM     12  C   UNL     1      98.068 106.836 102.302  1.00  0.00     0.012 A 
ATOM     13  C   UNL     1      96.489 105.827 103.826  1.00  0.00     0.029 A 
ATOM     14  C   UNL     1      96.468 105.291 105.180  1.00  0.00     0.178 C 
ATOM     15  C   UNL     1      97.045 106.948 101.346  1.00  0.00     0.001 A 
ATOM     16  C   UNL     1      95.455 105.928 102.893  1.00  0.00     0.012 A 
ATOM     17  O   UNL     1      95.457 104.789 105.737  1.00  0.00    -0.293 OA
ATOM     18  C   UNL     1      95.742 106.495 101.641  1.00  0.00     0.001 A 
ENDBRANCH   1   8
TORSDOF 1
ENDMDL
MODEL 2
REMARK VINA RESULT:      -6.4     13.942     16.043
REMARK SMILES O=C1c2ccccc2C(=O)C1c1ccc(Cl)cc1
REMARK SMILES IDX 12 1 13 2 14 3 15 4 16 5 17 6 18 7 11 8 1 9 2 10 3 11 4 12
REMARK SMILES IDX 8 13 9 14 5 15 7 16 10 17 6 18
REMARK H PARENT
ROOT
ATOM      1  C   UNL     1     103.273  95.819 112.207  1.00  0.00    -0.029 A 
ATOM      2  C   UNL     1     102.962  94.467 111.966  1.00  0.00     0.006 A 
ATOM      3  C   UNL     1     101.683  94.100 111.535  1.00  0.00     0.021 A 
ATOM      4  C   UNL     1     100.702  95.077 111.341  1.00  0.00     0.041 A 
ATOM      5  Cl  UNL     1      99.098  94.616 110.802  1.00  0.00    -0.084 Cl
ATOM      6  C   UNL     1     101.001  96.422 111.579  1.00  0.00     0.021 A 
ATOM      7  C   UNL     1     102.279  96.793 112.008  1.00  0.00     0.006 A 
ENDROOT
BRANCH   1   8
ATOM      8  C   UNL     1     104.651  96.234 112.673  1.00  0.00     0.163 C 
ATOM      9  O   UNL     1     105.924  95.644 110.661  1.00  0.00    -0.293 OA
ATOM     10  C   UNL     1     105.737  95.532 111.901  1.00  0.00     0.178 C 
ATOM     11  C   UNL     1     106.553  94.720 112.794  1.00  0.00     0.029 A 
ATOM     12  C   UNL     1     107.649  93.907 112.503  1.00  0.00     0.012 A 
ATOM     13  C   UNL     1     106.079  94.852 114.077  1.00  0.00     0.029 A 
ATOM     14  C   UNL     1     104.936  95.755 114.071  1.00  0.00     0.178 C 
ATOM     15  C   UNL     1     108.265  93.218 113.561  1.00  0.00     0.001 A 
ATOM     16  C   UNL     1     106.674  94.178 115.145  1.00  0.00     0.012 A 
ATOM     17  O   UNL     1     104.288  96.099 115.095  1.00  0.00    -0.293 OA
ATOM     18  C   UNL     1     107.779  93.353 114.878  1.00  0.00     0.001 A 
ENDBRANCH   1   8
TORSDOF 1
ENDMDL
MODEL 3
REMARK VINA RESULT:      -6.4     13.915     16.045
REMARK SMILES O=C1c2ccccc2C(=O)C1c1ccc(Cl)cc1
REMARK SMILES IDX 12 1 13 2 14 3 15 4 16 5 17 6 18 7 11 8 1 9 2 10 3 11 4 12
REMARK SMILES IDX 8 13 9 14 5 15 7 16 10 17 6 18
REMARK H PARENT
ROOT
ATOM      1  C   UNL     1     103.253  95.858 112.192  1.00  0.00    -0.029 A 
ATOM      2  C   UNL     1     102.241  96.815 111.985  1.00  0.00     0.006 A 
ATOM      3  C   UNL     1     100.972  96.420 111.550  1.00  0.00     0.021 A 
ATOM      4  C   UNL     1     100.700  95.068 111.317  1.00  0.00     0.041 A 
ATOM      5  Cl  UNL     1      99.108  94.575 110.771  1.00  0.00    -0.084 Cl
ATOM      6  C   UNL     1     101.699  94.111 111.519  1.00  0.00     0.021 A 
ATOM      7  C   UNL     1     102.969  94.503 111.954  1.00  0.00     0.006 A 
ENDROOT
BRANCH   1   8
ATOM      8  C   UNL     1     104.632  96.267 112.662  1.00  0.00     0.163 C 
ATOM      9  O   UNL     1     105.910  95.657 110.660  1.00  0.00    -0.293 OA
ATOM     10  C   UNL     1     105.717  95.554 111.899  1.00  0.00     0.178 C 
ATOM     11  C   UNL     1     106.523  94.742 112.802  1.00  0.00     0.029 A 
ATOM     12  C   UNL     1     107.616  93.921 112.521  1.00  0.00     0.012 A 
ATOM     13  C   UNL     1     106.045  94.885 114.081  1.00  0.00     0.029 A 
ATOM     14  C   UNL     1     104.907  95.796 114.064  1.00  0.00     0.178 C 
ATOM     15  C   UNL     1     108.222  93.235 113.586  1.00  0.00     0.001 A 
ATOM     16  C   UNL     1     106.630  94.214 115.156  1.00  0.00     0.012 A 
ATOM     17  O   UNL     1     104.257  96.149 115.083  1.00  0.00    -0.293 OA
ATOM     18  C   UNL     1     107.731  93.381 114.900  1.00  0.00     0.001 A 
ENDBRANCH   1   8
TORSDOF 1
ENDMDL
MODEL 4
REMARK VINA RESULT:      -6.1     13.393     15.118
REMARK SMILES O=C1c2ccccc2C(=O)C1c1ccc(Cl)cc1
REMARK SMILES IDX 12 1 13 2 14 3 15 4 16 5 17 6 18 7 11 8 1 9 2 10 3 11 4 12
REMARK SMILES IDX 8 13 9 14 5 15 7 16 10 17 6 18
REMARK H PARENT
ROOT
ATOM      1  C   UNL     1     103.477  97.125 114.377  1.00  0.00    -0.029 A 
ATOM      2  C   UNL     1     102.560  96.707 113.394  1.00  0.00     0.006 A 
ATOM      3  C   UNL     1     101.185  96.869 113.595  1.00  0.00     0.021 A 
ATOM      4  C   UNL     1     100.712  97.447 114.777  1.00  0.00     0.041 A 
ATOM      5  Cl  UNL     1      98.988  97.648 115.028  1.00  0.00    -0.084 Cl
ATOM      6  C   UNL     1     101.616  97.864 115.759  1.00  0.00     0.021 A 
ATOM      7  C   UNL     1     102.991  97.705 115.562  1.00  0.00     0.006 A 
ENDROOT
BRANCH   1   8
ATOM      8  C   UNL     1     104.967  96.958 114.177  1.00  0.00     0.163 C 
ATOM      9  O   UNL     1     105.212  98.226 112.091  1.00  0.00    -0.293 OA
ATOM     10  C   UNL     1     105.364  97.156 112.737  1.00  0.00     0.178 C 
ATOM     11  C   UNL     1     105.963  95.940 112.203  1.00  0.00     0.029 A 
ATOM     12  C   UNL     1     106.459  95.682 110.925  1.00  0.00     0.012 A 
ATOM     13  C   UNL     1     105.989  94.983 113.189  1.00  0.00     0.029 A 
ATOM     14  C   UNL     1     105.407  95.537 114.404  1.00  0.00     0.178 C 
ATOM     15  C   UNL     1     106.990  94.408 110.663  1.00  0.00     0.001 A 
ATOM     16  C   UNL     1     106.511  93.710 112.954  1.00  0.00     0.012 A 
ATOM     17  O   UNL     1     105.301  94.917 115.495  1.00  0.00    -0.293 OA
ATOM     18  C   UNL     1     107.017  93.425 111.674  1.00  0.00     0.001 A 
ENDBRANCH   1   8
TORSDOF 1
ENDMDL
MODEL 5
REMARK VINA RESULT:      -6.1     13.436     15.133
REMARK SMILES O=C1c2ccccc2C(=O)C1c1ccc(Cl)cc1
REMARK SMILES IDX 12 1 13 2 14 3 15 4 16 5 17 6 18 7 11 8 1 9 2 10 3 11 4 12
REMARK SMILES IDX 8 13 9 14 5 15 7 16 10 17 6 18
REMARK H PARENT
ROOT
ATOM      1  C   UNL     1     103.553  97.125 114.403  1.00  0.00    -0.029 A 
ATOM      2  C   UNL     1     103.056  97.688 115.594  1.00  0.00     0.006 A 
ATOM      3  C   UNL     1     101.679  97.830 115.789  1.00  0.00     0.021 A 
ATOM      4  C   UNL     1     100.784  97.414 114.798  1.00  0.00     0.041 A 
ATOM      5  Cl  UNL     1      99.057  97.595 115.044  1.00  0.00    -0.084 Cl
ATOM      6  C   UNL     1     101.267  96.855 113.612  1.00  0.00     0.021 A 
ATOM      7  C   UNL     1     102.644  96.710 113.414  1.00  0.00     0.006 A 
ENDROOT
BRANCH   1   8
ATOM      8  C   UNL     1     105.040  96.962 114.175  1.00  0.00     0.163 C 
ATOM      9  O   UNL     1     105.241  98.227 112.083  1.00  0.00    -0.293 OA
ATOM     10  C   UNL     1     105.408  97.158 112.728  1.00  0.00     0.178 C 
ATOM     11  C   UNL     1     106.002  95.944 112.185  1.00  0.00     0.029 A 
ATOM     12  C   UNL     1     106.475  95.685 110.898  1.00  0.00     0.012 A 
ATOM     13  C   UNL     1     106.049  94.989 113.172  1.00  0.00     0.029 A 
ATOM     14  C   UNL     1     105.488  95.543 114.397  1.00  0.00     0.178 C 
ATOM     15  C   UNL     1     107.005  94.412 110.629  1.00  0.00     0.001 A 
ATOM     16  C   UNL     1     106.571  93.717 112.929  1.00  0.00     0.012 A 
ATOM     17  O   UNL     1     105.404  94.925 115.491  1.00  0.00    -0.293 OA
ATOM     18  C   UNL     1     107.053  93.431 111.641  1.00  0.00     0.001 A 
ENDBRANCH   1   8
TORSDOF 1
ENDMDL
MODEL 6
REMARK VINA RESULT:      -5.8     14.102     15.753
REMARK SMILES O=C1c2ccccc2C(=O)C1c1ccc(Cl)cc1
REMARK SMILES IDX 12 1 13 2 14 3 15 4 16 5 17 6 18 7 11 8 1 9 2 10 3 11 4 12
REMARK SMILES IDX 8 13 9 14 5 15 7 16 10 17 6 18
REMARK H PARENT
ROOT
ATOM      1  C   UNL     1     104.933  94.794 112.411  1.00  0.00    -0.029 A 
ATOM      2  C   UNL     1     105.299  94.612 113.759  1.00  0.00     0.006 A 
ATOM      3  C   UNL     1     106.546  94.072 114.087  1.00  0.00     0.021 A 
ATOM      4  C   UNL     1     107.441  93.707 113.076  1.00  0.00     0.041 A 
ATOM      5  Cl  UNL     1     109.004  93.029 113.490  1.00  0.00    -0.084 Cl
ATOM      6  C   UNL     1     107.086  93.883 111.735  1.00  0.00     0.021 A 
ATOM      7  C   UNL     1     105.840  94.424 111.403  1.00  0.00     0.006 A 
ENDROOT
BRANCH   1   8
ATOM      8  C   UNL     1     103.588  95.376 112.038  1.00  0.00     0.163 C 
ATOM      9  O   UNL     1     103.973  97.695 112.739  1.00  0.00    -0.293 OA
ATOM     10  C   UNL     1     103.292  96.638 112.805  1.00  0.00     0.178 C 
ATOM     11  C   UNL     1     102.098  96.468 113.622  1.00  0.00     0.029 A 
ATOM     12  C   UNL     1     101.477  97.371 114.486  1.00  0.00     0.012 A 
ATOM     13  C   UNL     1     101.601  95.202 113.432  1.00  0.00     0.029 A 
ATOM     14  C   UNL     1     102.453  94.495 112.484  1.00  0.00     0.178 C 
ATOM     15  C   UNL     1     100.322  96.952 115.166  1.00  0.00     0.001 A 
ATOM     16  C   UNL     1     100.455  94.762 114.096  1.00  0.00     0.012 A 
ATOM     17  O   UNL     1     102.257  93.317 112.084  1.00  0.00    -0.293 OA
ATOM     18  C   UNL     1      99.812  95.652 114.972  1.00  0.00     0.001 A 
ENDBRANCH   1   8
TORSDOF 1
ENDMDL
MODEL 7
REMARK VINA RESULT:      -5.8     15.066     16.342
REMARK SMILES O=C1c2ccccc2C(=O)C1c1ccc(Cl)cc1
REMARK SMILES IDX 12 1 13 2 14 3 15 4 16 5 17 6 18 7 11 8 1 9 2 10 3 11 4 12
REMARK SMILES IDX 8 13 9 14 5 15 7 16 10 17 6 18
REMARK H PARENT
ROOT
ATOM      1  C   UNL     1     104.111  95.769 115.379  1.00  0.00    -0.029 A 
ATOM      2  C   UNL     1     103.672  96.416 116.550  1.00  0.00     0.006 A 
ATOM      3  C   UNL     1     102.431  96.099 117.111  1.00  0.00     0.021 A 
ATOM      4  C   UNL     1     101.616  95.134 116.510  1.00  0.00     0.041 A 
ATOM      5  Cl  UNL     1     100.060  94.738 117.215  1.00  0.00    -0.084 Cl
ATOM      6  C   UNL     1     102.043  94.487 115.347  1.00  0.00     0.021 A 
ATOM      7  C   UNL     1     103.284  94.801 114.783  1.00  0.00     0.006 A 
ENDROOT
BRANCH   1   8
ATOM      8  C   UNL     1     105.451  96.100 114.758  1.00  0.00     0.163 C 
ATOM      9  O   UNL     1     104.672  97.509 112.907  1.00  0.00    -0.293 OA
ATOM     10  C   UNL     1     105.313  96.505 113.314  1.00  0.00     0.178 C 
ATOM     11  C   UNL     1     106.041  95.580 112.454  1.00  0.00     0.029 A 
ATOM     12  C   UNL     1     106.173  95.576 111.066  1.00  0.00     0.012 A 
ATOM     13  C   UNL     1     106.640  94.621 113.234  1.00  0.00     0.029 A 
ATOM     14  C   UNL     1     106.325  94.882 114.633  1.00  0.00     0.178 C 
ATOM     15  C   UNL     1     106.939  94.558 110.475  1.00  0.00     0.001 A 
ATOM     16  C   UNL     1     107.406  93.599 112.671  1.00  0.00     0.012 A 
ATOM     17  O   UNL     1     106.740  94.192 115.602  1.00  0.00    -0.293 OA
ATOM     18  C   UNL     1     107.554  93.572 111.275  1.00  0.00     0.001 A 
ENDBRANCH   1   8
TORSDOF 1
ENDMDL
MODEL 8
REMARK VINA RESULT:      -5.8     14.300     15.879
REMARK SMILES O=C1c2ccccc2C(=O)C1c1ccc(Cl)cc1
REMARK SMILES IDX 12 1 13 2 14 3 15 4 16 5 17 6 18 7 11 8 1 9 2 10 3 11 4 12
REMARK SMILES IDX 8 13 9 14 5 15 7 16 10 17 6 18
REMARK H PARENT
ROOT
ATOM      1  C   UNL     1     104.471  93.823 113.625  1.00  0.00    -0.029 A 
ATOM      2  C   UNL     1     105.106  93.705 112.374  1.00  0.00     0.006 A 
ATOM      3  C   UNL     1     106.482  93.466 112.299  1.00  0.00     0.021 A 
ATOM      4  C   UNL     1     107.237  93.343 113.469  1.00  0.00     0.041 A 
ATOM      5  Cl  UNL     1     108.963  93.045 113.373  1.00  0.00    -0.084 Cl
ATOM      6  C   UNL     1     106.615  93.460 114.716  1.00  0.00     0.021 A 
ATOM      7  C   UNL     1     105.239  93.698 114.795  1.00  0.00     0.006 A 
ENDROOT
BRANCH   1   8
ATOM      8  C   UNL     1     102.983  94.081 113.725  1.00  0.00     0.163 C 
ATOM      9  O   UNL     1     102.169  91.925 112.883  1.00  0.00    -0.293 OA
ATOM     10  C   UNL     1     102.197  93.182 112.807  1.00  0.00     0.178 C 
ATOM     11  C   UNL     1     101.459  93.972 111.831  1.00  0.00     0.029 A 
ATOM     12  C   UNL     1     100.619  93.551 110.800  1.00  0.00     0.012 A 
ATOM     13  C   UNL     1     101.705  95.305 112.055  1.00  0.00     0.029 A 
ATOM     14  C   UNL     1     102.613  95.436 113.187  1.00  0.00     0.178 C 
ATOM     15  C   UNL     1     100.023  94.529 109.986  1.00  0.00     0.001 A 
ATOM     16  C   UNL     1     101.126  96.296 111.261  1.00  0.00     0.012 A 
ATOM     17  O   UNL     1     103.019  96.532 113.657  1.00  0.00    -0.293 OA
ATOM     18  C   UNL     1     100.276  95.897 110.216  1.00  0.00     0.001 A 
ENDBRANCH   1   8
TORSDOF 1
ENDMDL
MODEL 9
REMARK VINA RESULT:      -5.7     13.100     14.912
REMARK SMILES O=C1c2ccccc2C(=O)C1c1ccc(Cl)cc1
REMARK SMILES IDX 12 1 13 2 14 3 15 4 16 5 17 6 18 7 11 8 1 9 2 10 3 11 4 12
REMARK SMILES IDX 8 13 9 14 5 15 7 16 10 17 6 18
REMARK H PARENT
ROOT
ATOM      1  C   UNL     1     102.483  96.428 113.458  1.00  0.00    -0.029 A 
ATOM      2  C   UNL     1     101.626  97.025 114.403  1.00  0.00     0.006 A 
ATOM      3  C   UNL     1     100.242  97.023 114.204  1.00  0.00     0.021 A 
ATOM      4  C   UNL     1      99.698  96.426 113.062  1.00  0.00     0.041 A 
ATOM      5  Cl  UNL     1      97.962  96.424 112.814  1.00  0.00    -0.084 Cl
ATOM      6  C   UNL     1     100.541  95.831 112.118  1.00  0.00     0.021 A 
ATOM      7  C   UNL     1     101.925  95.831 112.314  1.00  0.00     0.006 A 
ENDROOT
BRANCH   1   8
ATOM      8  C   UNL     1     103.982  96.421 113.656  1.00  0.00     0.163 C 
ATOM      9  O   UNL     1     104.609  97.956 111.848  1.00  0.00    -0.293 OA
ATOM     10  C   UNL     1     104.714  96.831 112.405  1.00  0.00     0.178 C 
ATOM     11  C   UNL     1     105.573  95.750 111.941  1.00  0.00     0.029 A 
ATOM     12  C   UNL     1     106.412  95.699 110.827  1.00  0.00     0.012 A 
ATOM     13  C   UNL     1     105.454  94.684 112.799  1.00  0.00     0.029 A 
ATOM     14  C   UNL     1     104.514  95.028 113.857  1.00  0.00     0.178 C 
ATOM     15  C   UNL     1     107.141  94.520 110.599  1.00  0.00     0.001 A 
ATOM     16  C   UNL     1     106.168  93.502 112.594  1.00  0.00     0.012 A 
ATOM     17  O   UNL     1     104.201  94.270 114.813  1.00  0.00    -0.293 OA
ATOM     18  C   UNL     1     107.020  93.425 111.479  1.00  0.00     0.001 A 
ENDBRANCH   1   8
TORSDOF 1
ENDMDL
MODEL 10
REMARK VINA RESULT:      -5.4     14.412     16.292
REMARK SMILES O=C1c2ccccc2C(=O)C1c1ccc(Cl)cc1
REMARK SMILES IDX 12 1 13 2 14 3 15 4 16 5 17 6 18 7 11 8 1 9 2 10 3 11 4 12
REMARK SMILES IDX 8 13 9 14 5 15 7 16 10 17 6 18
REMARK H PARENT
ROOT
ATOM      1  C   UNL     1     102.616  95.143 114.700  1.00  0.00    -0.029 A 
ATOM      2  C   UNL     1     103.338  96.343 114.847  1.00  0.00     0.006 A 
ATOM      3  C   UNL     1     102.692  97.510 115.264  1.00  0.00     0.021 A 
ATOM      4  C   UNL     1     101.321  97.493 115.539  1.00  0.00     0.041 A 
ATOM      5  Cl  UNL     1     100.512  98.959 116.062  1.00  0.00    -0.084 Cl
ATOM      6  C   UNL     1     100.596  96.307 115.395  1.00  0.00     0.021 A 
ATOM      7  C   UNL     1     101.239  95.137 114.978  1.00  0.00     0.006 A 
ENDROOT
BRANCH   1   8
ATOM      8  C   UNL     1     103.299  93.870 114.249  1.00  0.00     0.163 C 
ATOM      9  O   UNL     1     104.633  93.425 116.258  1.00  0.00    -0.293 OA
ATOM     10  C   UNL     1     104.570  93.615 115.015  1.00  0.00     0.178 C 
ATOM     11  C   UNL     1     105.714  93.603 114.113  1.00  0.00     0.029 A 
ATOM     12  C   UNL     1     107.067  93.412 114.397  1.00  0.00     0.012 A 
ATOM     13  C   UNL     1     105.275  93.821 112.830  1.00  0.00     0.029 A 
ATOM     14  C   UNL     1     103.827  93.986 112.845  1.00  0.00     0.178 C 
ATOM     15  C   UNL     1     107.981  93.450 113.332  1.00  0.00     0.001 A 
ATOM     16  C   UNL     1     106.164  93.864 111.754  1.00  0.00     0.012 A 
ATOM     17  O   UNL     1     103.118  94.182 111.823  1.00  0.00    -0.293 OA
ATOM     18  C   UNL     1     107.531  93.675 112.014  1.00  0.00     0.001 A 
ENDBRANCH   1   8
TORSDOF 1
ENDMDL
MODEL 11
REMARK VINA RESULT:      -5.4     13.306     14.897
REMARK SMILES O=C1c2ccccc2C(=O)C1c1ccc(Cl)cc1
REMARK SMILES IDX 12 1 13 2 14 3 15 4 16 5 17 6 18 7 11 8 1 9 2 10 3 11 4 12
REMARK SMILES IDX 8 13 9 14 5 15 7 16 10 17 6 18
REMARK H PARENT
ROOT
ATOM      1  C   UNL     1     102.322  96.866 113.699  1.00  0.00    -0.029 A 
ATOM      2  C   UNL     1     103.161  97.230 114.770  1.00  0.00     0.006 A 
ATOM      3  C   UNL     1     102.626  97.818 115.921  1.00  0.00     0.021 A 
ATOM      4  C   UNL     1     101.250  98.049 116.015  1.00  0.00     0.041 A 
ATOM      5  Cl  UNL     1     100.581  98.787 117.458  1.00  0.00    -0.084 Cl
ATOM      6  C   UNL     1     100.409  97.692 114.956  1.00  0.00     0.021 A 
ATOM      7  C   UNL     1     100.941  97.103 113.805  1.00  0.00     0.006 A 
ENDROOT
BRANCH   1   8
ATOM      8  C   UNL     1     102.884  96.229 112.447  1.00  0.00     0.163 C 
ATOM      9  O   UNL     1     102.145  93.922 112.833  1.00  0.00    -0.293 OA
ATOM     10  C   UNL     1     103.073  94.744 112.612  1.00  0.00     0.178 C 
ATOM     11  C   UNL     1     104.478  94.390 112.461  1.00  0.00     0.029 A 
ATOM     12  C   UNL     1     105.092  93.140 112.544  1.00  0.00     0.012 A 
ATOM     13  C   UNL     1     105.202  95.529 112.206  1.00  0.00     0.029 A 
ATOM     14  C   UNL     1     104.297  96.671 112.181  1.00  0.00     0.178 C 
ATOM     15  C   UNL     1     106.483  93.070 112.360  1.00  0.00     0.001 A 
ATOM     16  C   UNL     1     106.585  95.486 112.020  1.00  0.00     0.012 A 
ATOM     17  O   UNL     1     104.649  97.859 111.952  1.00  0.00    -0.293 OA
ATOM     18  C   UNL     1     107.227  94.240 112.098  1.00  0.00     0.001 A 
ENDBRANCH   1   8
TORSDOF 1
ENDMDL
MODEL 12
REMARK VINA RESULT:      -5.4     16.241     18.035
REMARK SMILES O=C1c2ccccc2C(=O)C1c1ccc(Cl)cc1
REMARK SMILES IDX 12 1 13 2 14 3 15 4 16 5 17 6 18 7 11 8 1 9 2 10 3 11 4 12
REMARK SMILES IDX 8 13 9 14 5 15 7 16 10 17 6 18
REMARK H PARENT
ROOT
ATOM      1  C   UNL     1     106.294  94.262 114.404  1.00  0.00    -0.029 A 
ATOM      2  C   UNL     1     107.491  93.629 114.016  1.00  0.00     0.006 A 
ATOM      3  C   UNL     1     107.857  93.577 112.667  1.00  0.00     0.021 A 
ATOM      4  C   UNL     1     107.035  94.153 111.694  1.00  0.00     0.041 A 
ATOM      5  Cl  UNL     1     107.497  94.085 110.003  1.00  0.00    -0.084 Cl
ATOM      6  C   UNL     1     105.845  94.782 112.070  1.00  0.00     0.021 A 
ATOM      7  C   UNL     1     105.475  94.838 113.418  1.00  0.00     0.006 A 
ENDROOT
BRANCH   1   8
ATOM      8  C   UNL     1     105.881  94.328 115.858  1.00  0.00     0.163 C 
ATOM      9  O   UNL     1     105.341  91.961 116.206  1.00  0.00    -0.293 OA
ATOM     10  C   UNL     1     104.996  93.171 116.242  1.00  0.00     0.178 C 
ATOM     11  C   UNL     1     103.691  93.651 116.677  1.00  0.00     0.029 A 
ATOM     12  C   UNL     1     102.578  92.929 117.108  1.00  0.00     0.012 A 
ATOM     13  C   UNL     1     103.673  95.023 116.609  1.00  0.00     0.029 A 
ATOM     14  C   UNL     1     104.966  95.492 116.127  1.00  0.00     0.178 C 
ATOM     15  C   UNL     1     101.424  93.642 117.474  1.00  0.00     0.001 A 
ATOM     16  C   UNL     1     102.540  95.754 116.968  1.00  0.00     0.012 A 
ATOM     17  O   UNL     1     105.277  96.702 115.972  1.00  0.00    -0.293 OA
ATOM     18  C   UNL     1     101.405  95.051 117.404  1.00  0.00     0.001 A 
ENDBRANCH   1   8
TORSDOF 1
ENDMDL
MODEL 13
REMARK VINA RESULT:      -5.3     13.294     14.959
REMARK SMILES O=C1c2ccccc2C(=O)C1c1ccc(Cl)cc1
REMARK SMILES IDX 12 1 13 2 14 3 15 4 16 5 17 6 18 7 11 8 1 9 2 10 3 11 4 12
REMARK SMILES IDX 8 13 9 14 5 15 7 16 10 17 6 18
REMARK H PARENT
ROOT
ATOM      1  C   UNL     1     104.106  96.325 112.382  1.00  0.00    -0.029 A 
ATOM      2  C   UNL     1     104.014  94.920 112.390  1.00  0.00     0.006 A 
ATOM      3  C   UNL     1     105.050  94.140 111.866  1.00  0.00     0.021 A 
ATOM      4  C   UNL     1     106.187  94.752 111.330  1.00  0.00     0.041 A 
ATOM      5  Cl  UNL     1     107.485  93.772 110.673  1.00  0.00    -0.084 Cl
ATOM      6  C   UNL     1     106.287  96.147 111.317  1.00  0.00     0.021 A 
ATOM      7  C   UNL     1     105.254  96.930 111.841  1.00  0.00     0.006 A 
ENDROOT
BRANCH   1   8
ATOM      8  C   UNL     1     102.996  97.185 112.944  1.00  0.00     0.163 C 
ATOM      9  O   UNL     1     103.718  97.251 115.287  1.00  0.00    -0.293 OA
ATOM     10  C   UNL     1     102.835  96.990 114.429  1.00  0.00     0.178 C 
ATOM     11  C   UNL     1     101.506  96.474 114.733  1.00  0.00     0.029 A 
ATOM     12  C   UNL     1     100.942  96.147 115.967  1.00  0.00     0.012 A 
ATOM     13  C   UNL     1     100.803  96.331 113.563  1.00  0.00     0.029 A 
ATOM     14  C   UNL     1     101.644  96.747 112.448  1.00  0.00     0.178 C 
ATOM     15  C   UNL     1      99.625  95.660 115.986  1.00  0.00     0.001 A 
ATOM     16  C   UNL     1      99.492  95.849 113.555  1.00  0.00     0.012 A 
ATOM     17  O   UNL     1     101.284  96.753 111.241  1.00  0.00    -0.293 OA
ATOM     18  C   UNL     1      98.902  95.512 114.784  1.00  0.00     0.001 A 
ENDBRANCH   1   8
TORSDOF 1
ENDMDL
MODEL 14
REMARK VINA RESULT:      -5.3     12.317     13.935
REMARK SMILES O=C1c2ccccc2C(=O)C1c1ccc(Cl)cc1
REMARK SMILES IDX 12 1 13 2 14 3 15 4 16 5 17 6 18 7 11 8 1 9 2 10 3 11 4 12
REMARK SMILES IDX 8 13 9 14 5 15 7 16 10 17 6 18
REMARK H PARENT
ROOT
ATOM      1  C   UNL     1      97.895  94.438 101.272  1.00  0.00    -0.029 A 
ATOM      2  C   UNL     1      96.849  94.256 100.347  1.00  0.00     0.006 A 
ATOM      3  C   UNL     1      96.452  95.305  99.512  1.00  0.00     0.021 A 
ATOM      4  C   UNL     1      97.092  96.546  99.592  1.00  0.00     0.041 A 
ATOM      5  Cl  UNL     1      96.592  97.861  98.546  1.00  0.00    -0.084 Cl
ATOM      6  C   UNL     1      98.131  96.736 100.509  1.00  0.00     0.021 A 
ATOM      7  C   UNL     1      98.532  95.689 101.344  1.00  0.00     0.006 A 
ENDROOT
BRANCH   1   8
ATOM      8  C   UNL     1      98.338  93.314 102.182  1.00  0.00     0.163 C 
ATOM      9  O   UNL     1      97.468  94.181 104.305  1.00  0.00    -0.293 OA
ATOM     10  C   UNL     1      98.435  93.761 103.617  1.00  0.00     0.178 C 
ATOM     11  C   UNL     1      99.802  93.622 104.102  1.00  0.00     0.029 A 
ATOM     12  C   UNL     1     100.335  93.924 105.356  1.00  0.00     0.012 A 
ATOM     13  C   UNL     1     100.585  93.115 103.094  1.00  0.00     0.029 A 
ATOM     14  C   UNL     1      99.761  92.903 101.912  1.00  0.00     0.178 C 
ATOM     15  C   UNL     1     101.704  93.697 105.568  1.00  0.00     0.001 A 
ATOM     16  C   UNL     1     101.949  92.880 103.280  1.00  0.00     0.012 A 
ATOM     17  O   UNL     1     100.177  92.428 100.822  1.00  0.00    -0.293 OA
ATOM     18  C   UNL     1     102.509  93.176 104.534  1.00  0.00     0.001 A 
ENDBRANCH   1   8
TORSDOF 1
ENDMDL
MODEL 15
REMARK VINA RESULT:      -5.2     14.233     16.037
REMARK SMILES O=C1c2ccccc2C(=O)C1c1ccc(Cl)cc1
REMARK SMILES IDX 12 1 13 2 14 3 15 4 16 5 17 6 18 7 11 8 1 9 2 10 3 11 4 12
REMARK SMILES IDX 8 13 9 14 5 15 7 16 10 17 6 18
REMARK H PARENT
ROOT
ATOM      1  C   UNL     1     104.546  94.704 112.956  1.00  0.00    -0.029 A 
ATOM      2  C   UNL     1     105.194  94.070 111.879  1.00  0.00     0.006 A 
ATOM      3  C   UNL     1     106.499  93.587 112.024  1.00  0.00     0.021 A 
ATOM      4  C   UNL     1     107.169  93.732 113.243  1.00  0.00     0.041 A 
ATOM      5  Cl  UNL     1     108.806  93.128 113.422  1.00  0.00    -0.084 Cl
ATOM      6  C   UNL     1     106.534  94.362 114.317  1.00  0.00     0.021 A 
ATOM      7  C   UNL     1     105.229  94.845 114.177  1.00  0.00     0.006 A 
ENDROOT
BRANCH   1   8
ATOM      8  C   UNL     1     103.135  95.232 112.818  1.00  0.00     0.163 C 
ATOM      9  O   UNL     1     103.629  97.635 112.822  1.00  0.00    -0.293 OA
ATOM     10  C   UNL     1     103.017  96.650 113.313  1.00  0.00     0.178 C 
ATOM     11  C   UNL     1     102.083  96.724 114.428  1.00  0.00     0.029 A 
ATOM     12  C   UNL     1     101.687  97.828 115.183  1.00  0.00     0.012 A 
ATOM     13  C   UNL     1     101.588  95.468 114.682  1.00  0.00     0.029 A 
ATOM     14  C   UNL     1     102.180  94.525 113.742  1.00  0.00     0.178 C 
ATOM     15  C   UNL     1     100.761  97.626 116.220  1.00  0.00     0.001 A 
ATOM     16  C   UNL     1     100.667  95.241 115.706  1.00  0.00     0.012 A 
ATOM     17  O   UNL     1     101.917  93.294 113.699  1.00  0.00    -0.293 OA
ATOM     18  C   UNL     1     100.253  96.337 116.481  1.00  0.00     0.001 A 
ENDBRANCH   1   8
TORSDOF 1
ENDMDL
