MODEL 1
REMARK VINA RESULT:      -9.0      0.000      0.000
REMARK SMILES NC(=O)c1c(N)nn2ccc(N3C[C@@H](F)C[C@@H]3c3cc(F)ccc3F)nc12
REMARK SMILES IDX 4 1 5 2 7 3 8 4 9 5 10 6 11 7 26 8 27 9 2 10 1 11 3 12 6 15
REMARK SMILES IDX 12 18 13 19 17 20 14 21 16 22 15 23 18 24 19 25 24 26 20 27
REMARK SMILES IDX 23 28 22 29 25 30 21 31
REMARK H PARENT 1 13 1 14 6 16 6 17
ROOT
ATOM      1  C   UNL     1     115.786  94.794 122.740  1.00  0.00     0.128 A 
ATOM      2  C   UNL     1     115.083  95.127 123.905  1.00  0.00     0.161 A 
ATOM      3  N   UNL     1     115.800  95.977 124.678  1.00  0.00    -0.148 NA
ATOM      4  N   UNL     1     116.933  96.194 124.033  1.00  0.00    -0.219 N 
ATOM      5  C   UNL     1     117.947  97.002 124.421  1.00  0.00     0.119 A 
ATOM      6  C   UNL     1     119.056  97.120 123.573  1.00  0.00     0.067 A 
ATOM      7  C   UNL     1     119.071  96.395 122.353  1.00  0.00     0.133 A 
ATOM      8  N   UNL     1     118.004  95.604 122.028  1.00  0.00    -0.211 NA
ATOM      9  C   UNL     1     116.957  95.510 122.885  1.00  0.00     0.172 A 
ENDROOT
BRANCH   1  10
ATOM     10  C   UNL     1     115.366  93.937 121.611  1.00  0.00     0.256 C 
ATOM     11  N   UNL     1     116.071  93.956 120.368  1.00  0.00    -0.365 N 
ATOM     12  O   UNL     1     114.367  93.181 121.736  1.00  0.00    -0.269 OA
ATOM     13  H   UNL     1     116.890  94.570 120.249  1.00  0.00     0.159 HD
ATOM     14  H   UNL     1     115.759  93.356 119.592  1.00  0.00     0.159 HD
ENDBRANCH   1  10
BRANCH   2  15
ATOM     15  N   UNL     1     113.798  94.633 124.288  1.00  0.00    -0.381 N 
ATOM     16  H   UNL     1     113.060  95.290 124.578  1.00  0.00     0.158 HD
ATOM     17  H   UNL     1     113.612  93.620 124.274  1.00  0.00     0.158 HD
ENDBRANCH   2  15
BRANCH   7  18
ATOM     18  N   UNL     1     120.187  96.480 121.444  1.00  0.00    -0.346 N 
ATOM     19  C   UNL     1     121.565  96.461 121.906  1.00  0.00     0.156 C 
ATOM     20  C   UNL     1     120.087  96.522 119.987  1.00  0.00     0.120 C 
ATOM     21  C   UNL     1     122.417  96.252 120.660  1.00  0.00     0.188 C 
ATOM     22  C   UNL     1     121.528  96.638 119.480  1.00  0.00     0.069 C 
ATOM     23  F   UNL     1     122.776  94.917 120.556  1.00  0.00    -0.245 F 
BRANCH  20  24
ATOM     24  C   UNL     1     119.244  97.693 119.514  1.00  0.00     0.013 A 
ATOM     25  C   UNL     1     119.636  99.017 119.793  1.00  0.00     0.048 A 
ATOM     26  C   UNL     1     118.083  97.472 118.747  1.00  0.00     0.128 A 
ATOM     27  C   UNL     1     118.868 100.093 119.344  1.00  0.00     0.123 A 
ATOM     28  C   UNL     1     117.319  98.555 118.299  1.00  0.00     0.042 A 
ATOM     29  C   UNL     1     117.708  99.863 118.600  1.00  0.00     0.042 A 
ATOM     30  F   UNL     1     117.688  96.213 118.431  1.00  0.00    -0.207 F 
ATOM     31  F   UNL     1     119.250 101.363 119.627  1.00  0.00    -0.207 F 
ENDBRANCH  20  24
ENDBRANCH   7  18
TORSDOF 4
ENDMDL
MODEL 2
REMARK VINA RESULT:      -8.4      0.762      1.618
REMARK SMILES NC(=O)c1c(N)nn2ccc(N3C[C@@H](F)C[C@@H]3c3cc(F)ccc3F)nc12
REMARK SMILES IDX 4 1 5 2 7 3 8 4 9 5 10 6 11 7 26 8 27 9 2 10 1 11 3 12 6 15
REMARK SMILES IDX 12 18 13 19 17 20 14 21 16 22 15 23 18 24 19 25 24 26 20 27
REMARK SMILES IDX 23 28 22 29 25 30 21 31
REMARK H PARENT 1 13 1 14 6 16 6 17
ROOT
ATOM      1  C   UNL     1     115.781  94.847 122.678  1.00  0.00     0.128 A 
ATOM      2  C   UNL     1     115.057  95.234 123.813  1.00  0.00     0.161 A 
ATOM      3  N   UNL     1     115.762  96.114 124.562  1.00  0.00    -0.148 NA
ATOM      4  N   UNL     1     116.909  96.297 123.931  1.00  0.00    -0.219 N 
ATOM      5  C   UNL     1     117.919  97.118 124.304  1.00  0.00     0.119 A 
ATOM      6  C   UNL     1     119.046  97.193 123.474  1.00  0.00     0.067 A 
ATOM      7  C   UNL     1     119.082  96.415 122.289  1.00  0.00     0.133 A 
ATOM      8  N   UNL     1     118.017  95.614 121.977  1.00  0.00    -0.211 NA
ATOM      9  C   UNL     1     116.953  95.563 122.815  1.00  0.00     0.172 A 
ENDROOT
BRANCH   1  10
ATOM     10  C   UNL     1     115.380  93.942 121.580  1.00  0.00     0.256 C 
ATOM     11  N   UNL     1     116.076  93.943 120.332  1.00  0.00    -0.365 N 
ATOM     12  O   UNL     1     114.405  93.160 121.737  1.00  0.00    -0.269 OA
ATOM     13  H   UNL     1     116.875  94.576 120.188  1.00  0.00     0.159 HD
ATOM     14  H   UNL     1     115.778  93.309 119.577  1.00  0.00     0.159 HD
ENDBRANCH   1  10
BRANCH   2  15
ATOM     15  N   UNL     1     113.762  94.762 124.191  1.00  0.00    -0.381 N 
ATOM     16  H   UNL     1     113.604  94.400 125.142  1.00  0.00     0.158 HD
ATOM     17  H   UNL     1     112.988  94.785 123.512  1.00  0.00     0.158 HD
ENDBRANCH   2  15
BRANCH   7  18
ATOM     18  N   UNL     1     120.217  96.454 121.399  1.00  0.00    -0.346 N 
ATOM     19  C   UNL     1     121.584  96.496 121.891  1.00  0.00     0.156 C 
ATOM     20  C   UNL     1     120.149  96.387 119.942  1.00  0.00     0.120 C 
ATOM     21  C   UNL     1     122.467  96.213 120.682  1.00  0.00     0.188 C 
ATOM     22  C   UNL     1     121.599  96.494 119.458  1.00  0.00     0.069 C 
ATOM     23  F   UNL     1     122.853  94.882 120.685  1.00  0.00    -0.245 F 
BRANCH  20  24
ATOM     24  C   UNL     1     119.295  97.503 119.366  1.00  0.00     0.013 A 
ATOM     25  C   UNL     1     118.347  97.233 118.360  1.00  0.00     0.048 A 
ATOM     26  C   UNL     1     119.406  98.816 119.865  1.00  0.00     0.128 A 
ATOM     27  C   UNL     1     117.552  98.259 117.842  1.00  0.00     0.123 A 
ATOM     28  C   UNL     1     118.606  99.837 119.342  1.00  0.00     0.042 A 
ATOM     29  C   UNL     1     117.684  99.560 118.330  1.00  0.00     0.042 A 
ATOM     30  F   UNL     1     120.286  99.110 120.855  1.00  0.00    -0.207 F 
ATOM     31  F   UNL     1     116.649  97.989 116.867  1.00  0.00    -0.207 F 
ENDBRANCH  20  24
ENDBRANCH   7  18
TORSDOF 4
ENDMDL
MODEL 3
REMARK VINA RESULT:      -8.3      1.521      2.404
REMARK SMILES NC(=O)c1c(N)nn2ccc(N3C[C@@H](F)C[C@@H]3c3cc(F)ccc3F)nc12
REMARK SMILES IDX 4 1 5 2 7 3 8 4 9 5 10 6 11 7 26 8 27 9 2 10 1 11 3 12 6 15
REMARK SMILES IDX 12 18 13 19 17 20 14 21 16 22 15 23 18 24 19 25 24 26 20 27
REMARK SMILES IDX 23 28 22 29 25 30 21 31
REMARK H PARENT 1 13 1 14 6 16 6 17
ROOT
ATOM      1  C   UNL     1     115.554  95.879 123.566  1.00  0.00     0.128 A 
ATOM      2  C   UNL     1     114.444  95.047 123.380  1.00  0.00     0.161 A 
ATOM      3  N   UNL     1     114.623  94.228 122.317  1.00  0.00    -0.148 NA
ATOM      4  N   UNL     1     115.816  94.518 121.828  1.00  0.00    -0.219 N 
ATOM      5  C   UNL     1     116.427  93.928 120.773  1.00  0.00     0.119 A 
ATOM      6  C   UNL     1     117.715  94.361 120.432  1.00  0.00     0.067 A 
ATOM      7  C   UNL     1     118.322  95.388 121.199  1.00  0.00     0.133 A 
ATOM      8  N   UNL     1     117.643  95.929 122.257  1.00  0.00    -0.211 NA
ATOM      9  C   UNL     1     116.394  95.488 122.542  1.00  0.00     0.172 A 
ENDROOT
BRANCH   1  10
ATOM     10  C   UNL     1     115.798  96.887 124.621  1.00  0.00     0.256 C 
ATOM     11  N   UNL     1     117.117  97.140 125.107  1.00  0.00    -0.365 N 
ATOM     12  O   UNL     1     114.832  97.531 125.107  1.00  0.00    -0.269 OA
ATOM     13  H   UNL     1     117.919  96.622 124.720  1.00  0.00     0.159 HD
ATOM     14  H   UNL     1     117.266  97.842 125.846  1.00  0.00     0.159 HD
ENDBRANCH   1  10
BRANCH   2  15
ATOM     15  N   UNL     1     113.245  95.050 124.158  1.00  0.00    -0.381 N 
ATOM     16  H   UNL     1     113.098  94.331 124.880  1.00  0.00     0.158 HD
ATOM     17  H   UNL     1     112.528  95.772 123.995  1.00  0.00     0.158 HD
ENDBRANCH   2  15
BRANCH   7  18
ATOM     18  N   UNL     1     119.646  95.871 120.893  1.00  0.00    -0.346 N 
ATOM     19  C   UNL     1     120.765  95.689 121.803  1.00  0.00     0.156 C 
ATOM     20  C   UNL     1     120.040  96.517 119.644  1.00  0.00     0.120 C 
ATOM     21  C   UNL     1     122.012  96.040 121.000  1.00  0.00     0.188 C 
ATOM     22  C   UNL     1     121.523  96.866 119.812  1.00  0.00     0.069 C 
ATOM     23  F   UNL     1     122.618  94.880 120.543  1.00  0.00    -0.245 F 
BRANCH  20  24
ATOM     24  C   UNL     1     119.213  97.760 119.368  1.00  0.00     0.013 A 
ATOM     25  C   UNL     1     119.594  99.007 119.902  1.00  0.00     0.048 A 
ATOM     26  C   UNL     1     118.081  97.693 118.532  1.00  0.00     0.128 A 
ATOM     27  C   UNL     1     118.840 100.153 119.635  1.00  0.00     0.123 A 
ATOM     28  C   UNL     1     117.332  98.844 118.268  1.00  0.00     0.042 A 
ATOM     29  C   UNL     1     117.708 100.070 118.821  1.00  0.00     0.042 A 
ATOM     30  F   UNL     1     117.700  96.517 117.973  1.00  0.00    -0.207 F 
ATOM     31  F   UNL     1     119.210 101.345 120.162  1.00  0.00    -0.207 F 
ENDBRANCH  20  24
ENDBRANCH   7  18
TORSDOF 4
ENDMDL
MODEL 4
REMARK VINA RESULT:      -7.9      3.723      6.204
REMARK SMILES NC(=O)c1c(N)nn2ccc(N3C[C@@H](F)C[C@@H]3c3cc(F)ccc3F)nc12
REMARK SMILES IDX 4 1 5 2 7 3 8 4 9 5 10 6 11 7 26 8 27 9 2 10 1 11 3 12 6 15
REMARK SMILES IDX 12 18 13 19 17 20 14 21 16 22 15 23 18 24 19 25 24 26 20 27
REMARK SMILES IDX 23 28 22 29 25 30 21 31
REMARK H PARENT 1 13 1 14 6 16 6 17
ROOT
ATOM      1  C   UNL     1     117.993 101.523 120.350  1.00  0.00     0.128 A 
ATOM      2  C   UNL     1     117.176 102.023 119.327  1.00  0.00     0.161 A 
ATOM      3  N   UNL     1     116.985 101.093 118.361  1.00  0.00    -0.148 NA
ATOM      4  N   UNL     1     117.653 100.019 118.747  1.00  0.00    -0.219 N 
ATOM      5  C   UNL     1     117.726  98.832 118.101  1.00  0.00     0.119 A 
ATOM      6  C   UNL     1     118.466  97.803 118.697  1.00  0.00     0.067 A 
ATOM      7  C   UNL     1     119.102  98.044 119.942  1.00  0.00     0.133 A 
ATOM      8  N   UNL     1     118.976  99.270 120.537  1.00  0.00    -0.211 NA
ATOM      9  C   UNL     1     118.260 100.240 119.917  1.00  0.00     0.172 A 
ENDROOT
BRANCH   1  10
ATOM     10  C   UNL     1     118.420 102.178 121.604  1.00  0.00     0.256 C 
ATOM     11  N   UNL     1     118.808 101.408 122.744  1.00  0.00    -0.365 N 
ATOM     12  O   UNL     1     118.440 103.435 121.680  1.00  0.00    -0.269 OA
ATOM     13  H   UNL     1     118.796 100.379 122.699  1.00  0.00     0.159 HD
ATOM     14  H   UNL     1     119.097 101.883 123.611  1.00  0.00     0.159 HD
ENDBRANCH   1  10
BRANCH   2  15
ATOM     15  N   UNL     1     116.628 103.340 119.250  1.00  0.00    -0.381 N 
ATOM     16  H   UNL     1     115.814 103.523 118.646  1.00  0.00     0.158 HD
ATOM     17  H   UNL     1     117.047 104.105 119.798  1.00  0.00     0.158 HD
ENDBRANCH   2  15
BRANCH   7  18
ATOM     18  N   UNL     1     119.876  97.020 120.600  1.00  0.00    -0.346 N 
ATOM     19  C   UNL     1     121.124  96.519 120.048  1.00  0.00     0.156 C 
ATOM     20  C   UNL     1     119.558  96.423 121.895  1.00  0.00     0.120 C 
ATOM     21  C   UNL     1     121.773  95.708 121.163  1.00  0.00     0.188 C 
ATOM     22  C   UNL     1     120.651  95.379 122.145  1.00  0.00     0.069 C 
ATOM     23  F   UNL     1     122.739  96.473 121.798  1.00  0.00    -0.245 F 
BRANCH  20  24
ATOM     24  C   UNL     1     118.180  95.786 121.898  1.00  0.00     0.013 A 
ATOM     25  C   UNL     1     117.818  94.858 120.902  1.00  0.00     0.048 A 
ATOM     26  C   UNL     1     117.262  96.076 122.927  1.00  0.00     0.128 A 
ATOM     27  C   UNL     1     116.555  94.260 120.916  1.00  0.00     0.123 A 
ATOM     28  C   UNL     1     116.000  95.473 122.934  1.00  0.00     0.042 A 
ATOM     29  C   UNL     1     115.646  94.571 121.929  1.00  0.00     0.042 A 
ATOM     30  F   UNL     1     117.584  96.941 123.921  1.00  0.00    -0.207 F 
ATOM     31  F   UNL     1     116.214  93.376 119.946  1.00  0.00    -0.207 F 
ENDBRANCH  20  24
ENDBRANCH   7  18
TORSDOF 4
ENDMDL
MODEL 5
REMARK VINA RESULT:      -7.9      2.061      4.357
REMARK SMILES NC(=O)c1c(N)nn2ccc(N3C[C@@H](F)C[C@@H]3c3cc(F)ccc3F)nc12
REMARK SMILES IDX 4 1 5 2 7 3 8 4 9 5 10 6 11 7 26 8 27 9 2 10 1 11 3 12 6 15
REMARK SMILES IDX 12 18 13 19 17 20 14 21 16 22 15 23 18 24 19 25 24 26 20 27
REMARK SMILES IDX 23 28 22 29 25 30 21 31
REMARK H PARENT 1 13 1 14 6 16 6 17
ROOT
ATOM      1  C   UNL     1     115.143  95.603 123.491  1.00  0.00     0.128 A 
ATOM      2  C   UNL     1     114.835  94.237 123.465  1.00  0.00     0.161 A 
ATOM      3  N   UNL     1     115.423  93.627 122.408  1.00  0.00    -0.148 NA
ATOM      4  N   UNL     1     116.095  94.569 121.768  1.00  0.00    -0.219 N 
ATOM      5  C   UNL     1     116.858  94.412 120.662  1.00  0.00     0.119 A 
ATOM      6  C   UNL     1     117.519  95.538 120.153  1.00  0.00     0.067 A 
ATOM      7  C   UNL     1     117.365  96.784 120.813  1.00  0.00     0.133 A 
ATOM      8  N   UNL     1     116.582  96.860 121.933  1.00  0.00    -0.211 NA
ATOM      9  C   UNL     1     115.951  95.747 122.382  1.00  0.00     0.172 A 
ENDROOT
BRANCH   1  10
ATOM     10  C   UNL     1     114.750  96.628 124.482  1.00  0.00     0.256 C 
ATOM     11  N   UNL     1     115.720  97.504 125.061  1.00  0.00    -0.365 N 
ATOM     12  O   UNL     1     113.545  96.732 124.832  1.00  0.00    -0.269 OA
ATOM     13  H   UNL     1     116.710  97.432 124.786  1.00  0.00     0.159 HD
ATOM     14  H   UNL     1     115.428  98.208 125.753  1.00  0.00     0.159 HD
ENDBRANCH   1  10
BRANCH   2  15
ATOM     15  N   UNL     1     113.990  93.543 124.385  1.00  0.00    -0.381 N 
ATOM     16  H   UNL     1     113.041  93.264 124.101  1.00  0.00     0.158 HD
ATOM     17  H   UNL     1     114.332  93.321 125.331  1.00  0.00     0.158 HD
ENDBRANCH   2  15
BRANCH   7  18
ATOM     18  N   UNL     1     118.024  97.974 120.333  1.00  0.00    -0.346 N 
ATOM     19  C   UNL     1     117.431  98.829 119.318  1.00  0.00     0.156 C 
ATOM     20  C   UNL     1     119.291  98.498 120.836  1.00  0.00     0.120 C 
ATOM     21  C   UNL     1     118.259 100.108 119.321  1.00  0.00     0.188 C 
ATOM     22  C   UNL     1     119.580  99.747 119.997  1.00  0.00     0.069 C 
ATOM     23  F   UNL     1     117.610 101.086 120.058  1.00  0.00    -0.245 F 
BRANCH  20  24
ATOM     24  C   UNL     1     120.411  97.481 120.707  1.00  0.00     0.013 A 
ATOM     25  C   UNL     1     120.883  97.092 119.438  1.00  0.00     0.048 A 
ATOM     26  C   UNL     1     121.028  96.949 121.857  1.00  0.00     0.128 A 
ATOM     27  C   UNL     1     121.924  96.167 119.322  1.00  0.00     0.123 A 
ATOM     28  C   UNL     1     122.071  96.025 121.732  1.00  0.00     0.042 A 
ATOM     29  C   UNL     1     122.516  95.632 120.468  1.00  0.00     0.042 A 
ATOM     30  F   UNL     1     120.624  97.322 123.097  1.00  0.00    -0.207 F 
ATOM     31  F   UNL     1     122.363  95.793 118.095  1.00  0.00    -0.207 F 
ENDBRANCH  20  24
ENDBRANCH   7  18
TORSDOF 4
ENDMDL
MODEL 6
REMARK VINA RESULT:      -7.8      2.208      3.228
REMARK SMILES NC(=O)c1c(N)nn2ccc(N3C[C@@H](F)C[C@@H]3c3cc(F)ccc3F)nc12
REMARK SMILES IDX 4 1 5 2 7 3 8 4 9 5 10 6 11 7 26 8 27 9 2 10 1 11 3 12 6 15
REMARK SMILES IDX 12 18 13 19 17 20 14 21 16 22 15 23 18 24 19 25 24 26 20 27
REMARK SMILES IDX 23 28 22 29 25 30 21 31
REMARK H PARENT 1 13 1 14 6 16 6 17
ROOT
ATOM      1  C   UNL     1     115.562  94.969 123.289  1.00  0.00     0.128 A 
ATOM      2  C   UNL     1     114.648  93.928 123.084  1.00  0.00     0.161 A 
ATOM      3  N   UNL     1     114.817  93.367 121.862  1.00  0.00    -0.148 NA
ATOM      4  N   UNL     1     115.814  94.023 121.292  1.00  0.00    -0.219 N 
ATOM      5  C   UNL     1     116.347  93.787 120.071  1.00  0.00     0.119 A 
ATOM      6  C   UNL     1     117.428  94.579 119.661  1.00  0.00     0.067 A 
ATOM      7  C   UNL     1     117.917  95.584 120.535  1.00  0.00     0.133 A 
ATOM      8  N   UNL     1     117.328  95.756 121.758  1.00  0.00    -0.211 NA
ATOM      9  C   UNL     1     116.277  94.975 122.108  1.00  0.00     0.172 A 
ENDROOT
BRANCH   1  10
ATOM     10  C   UNL     1     115.756  95.817 124.484  1.00  0.00     0.256 C 
ATOM     11  N   UNL     1     117.064  96.099 124.985  1.00  0.00    -0.365 N 
ATOM     12  O   UNL     1     114.756  96.297 125.081  1.00  0.00    -0.269 OA
ATOM     13  H   UNL     1     117.892  95.714 124.509  1.00  0.00     0.159 HD
ATOM     14  H   UNL     1     117.178  96.687 125.822  1.00  0.00     0.159 HD
ENDBRANCH   1  10
BRANCH   2  15
ATOM     15  N   UNL     1     113.632  93.503 123.994  1.00  0.00    -0.381 N 
ATOM     16  H   UNL     1     113.888  92.978 124.842  1.00  0.00     0.158 HD
ATOM     17  H   UNL     1     112.644  93.722 123.801  1.00  0.00     0.158 HD
ENDBRANCH   2  15
BRANCH   7  18
ATOM     18  N   UNL     1     119.027  96.426 120.164  1.00  0.00    -0.346 N 
ATOM     19  C   UNL     1     120.405  96.052 120.434  1.00  0.00     0.156 C 
ATOM     20  C   UNL     1     118.923  97.685 119.431  1.00  0.00     0.120 C 
ATOM     21  C   UNL     1     121.262  97.020 119.628  1.00  0.00     0.188 C 
ATOM     22  C   UNL     1     120.358  98.208 119.308  1.00  0.00     0.069 C 
ATOM     23  F   UNL     1     121.672  96.416 118.450  1.00  0.00    -0.245 F 
BRANCH  20  24
ATOM     24  C   UNL     1     118.035  98.685 120.151  1.00  0.00     0.013 A 
ATOM     25  C   UNL     1     116.826  99.116 119.571  1.00  0.00     0.048 A 
ATOM     26  C   UNL     1     118.385  99.156 121.431  1.00  0.00     0.128 A 
ATOM     27  C   UNL     1     116.003 100.024 120.242  1.00  0.00     0.123 A 
ATOM     28  C   UNL     1     117.555 100.064 122.098  1.00  0.00     0.042 A 
ATOM     29  C   UNL     1     116.369 100.500 121.503  1.00  0.00     0.042 A 
ATOM     30  F   UNL     1     119.526  98.741 122.037  1.00  0.00    -0.207 F 
ATOM     31  F   UNL     1     114.846 100.440 119.670  1.00  0.00    -0.207 F 
ENDBRANCH  20  24
ENDBRANCH   7  18
TORSDOF 4
ENDMDL
MODEL 7
REMARK VINA RESULT:      -7.6      1.953      3.932
REMARK SMILES NC(=O)c1c(N)nn2ccc(N3C[C@@H](F)C[C@@H]3c3cc(F)ccc3F)nc12
REMARK SMILES IDX 4 1 5 2 7 3 8 4 9 5 10 6 11 7 26 8 27 9 2 10 1 11 3 12 6 15
REMARK SMILES IDX 12 18 13 19 17 20 14 21 16 22 15 23 18 24 19 25 24 26 20 27
REMARK SMILES IDX 23 28 22 29 25 30 21 31
REMARK H PARENT 1 13 1 14 6 16 6 17
ROOT
ATOM      1  C   UNL     1     115.263  95.081 122.836  1.00  0.00     0.128 A 
ATOM      2  C   UNL     1     114.636  94.765 124.048  1.00  0.00     0.161 A 
ATOM      3  N   UNL     1     114.805  95.757 124.954  1.00  0.00    -0.148 NA
ATOM      4  N   UNL     1     115.517  96.691 124.349  1.00  0.00    -0.219 N 
ATOM      5  C   UNL     1     115.905  97.880 124.867  1.00  0.00     0.119 A 
ATOM      6  C   UNL     1     116.633  98.750 124.044  1.00  0.00     0.067 A 
ATOM      7  C   UNL     1     116.929  98.354 122.714  1.00  0.00     0.133 A 
ATOM      8  N   UNL     1     116.495  97.138 122.261  1.00  0.00    -0.211 NA
ATOM      9  C   UNL     1     115.805  96.324 123.096  1.00  0.00     0.172 A 
ENDROOT
BRANCH   1  10
ATOM     10  C   UNL     1     115.297  94.310 121.575  1.00  0.00     0.256 C 
ATOM     11  N   UNL     1     116.377  94.454 120.651  1.00  0.00    -0.365 N 
ATOM     12  O   UNL     1     114.358  93.515 121.301  1.00  0.00    -0.269 OA
ATOM     13  H   UNL     1     117.152  95.099 120.859  1.00  0.00     0.159 HD
ATOM     14  H   UNL     1     116.379  93.911 119.775  1.00  0.00     0.159 HD
ENDBRANCH   1  10
BRANCH   2  15
ATOM     15  N   UNL     1     113.934  93.557 124.347  1.00  0.00    -0.381 N 
ATOM     16  H   UNL     1     113.522  93.000 123.586  1.00  0.00     0.158 HD
ATOM     17  H   UNL     1     113.841  93.245 125.324  1.00  0.00     0.158 HD
ENDBRANCH   2  15
BRANCH   7  18
ATOM     18  N   UNL     1     117.674  99.211 121.825  1.00  0.00    -0.346 N 
ATOM     19  C   UNL     1     117.020 100.103 120.882  1.00  0.00     0.156 C 
ATOM     20  C   UNL     1     119.129  99.345 121.803  1.00  0.00     0.120 C 
ATOM     21  C   UNL     1     118.109 101.038 120.372  1.00  0.00     0.188 C 
ATOM     22  C   UNL     1     119.433 100.340 120.679  1.00  0.00     0.069 C 
ATOM     23  F   UNL     1     118.050 102.244 121.054  1.00  0.00    -0.245 F 
BRANCH  20  24
ATOM     24  C   UNL     1     119.813  98.012 121.555  1.00  0.00     0.013 A 
ATOM     25  C   UNL     1     120.244  97.659 120.262  1.00  0.00     0.048 A 
ATOM     26  C   UNL     1     120.071  97.133 122.625  1.00  0.00     0.128 A 
ATOM     27  C   UNL     1     120.887  96.439 120.038  1.00  0.00     0.123 A 
ATOM     28  C   UNL     1     120.717  95.914 122.394  1.00  0.00     0.042 A 
ATOM     29  C   UNL     1     121.121  95.565 121.103  1.00  0.00     0.042 A 
ATOM     30  F   UNL     1     119.699  97.451 123.891  1.00  0.00    -0.207 F 
ATOM     31  F   UNL     1     121.289  96.104 118.787  1.00  0.00    -0.207 F 
ENDBRANCH  20  24
ENDBRANCH   7  18
TORSDOF 4
ENDMDL
MODEL 8
REMARK VINA RESULT:      -7.6      1.749      2.421
REMARK SMILES NC(=O)c1c(N)nn2ccc(N3C[C@@H](F)C[C@@H]3c3cc(F)ccc3F)nc12
REMARK SMILES IDX 4 1 5 2 7 3 8 4 9 5 10 6 11 7 26 8 27 9 2 10 1 11 3 12 6 15
REMARK SMILES IDX 12 18 13 19 17 20 14 21 16 22 15 23 18 24 19 25 24 26 20 27
REMARK SMILES IDX 23 28 22 29 25 30 21 31
REMARK H PARENT 1 13 1 14 6 16 6 17
ROOT
ATOM      1  C   UNL     1     115.276  94.933 122.949  1.00  0.00     0.128 A 
ATOM      2  C   UNL     1     114.851  94.917 124.283  1.00  0.00     0.161 A 
ATOM      3  N   UNL     1     115.646  95.695 125.056  1.00  0.00    -0.148 NA
ATOM      4  N   UNL     1     116.559  96.204 124.247  1.00  0.00    -0.219 N 
ATOM      5  C   UNL     1     117.551  97.063 124.579  1.00  0.00     0.119 A 
ATOM      6  C   UNL     1     118.401  97.514 123.560  1.00  0.00     0.067 A 
ATOM      7  C   UNL     1     118.189  97.057 122.234  1.00  0.00     0.133 A 
ATOM      8  N   UNL     1     117.159  96.194 121.976  1.00  0.00    -0.211 NA
ATOM      9  C   UNL     1     116.369  95.775 122.995  1.00  0.00     0.172 A 
ENDROOT
BRANCH   1  10
ATOM     10  C   UNL     1     114.680  94.265 121.773  1.00  0.00     0.256 C 
ATOM     11  N   UNL     1     115.474  93.929 120.634  1.00  0.00    -0.365 N 
ATOM     12  O   UNL     1     113.451  93.989 121.765  1.00  0.00    -0.269 OA
ATOM     13  H   UNL     1     116.481  94.148 120.624  1.00  0.00     0.159 HD
ATOM     14  H   UNL     1     115.039  93.468 119.822  1.00  0.00     0.159 HD
ENDBRANCH   1  10
BRANCH   2  15
ATOM     15  N   UNL     1     113.756  94.168 124.813  1.00  0.00    -0.381 N 
ATOM     16  H   UNL     1     112.907  94.028 124.248  1.00  0.00     0.158 HD
ATOM     17  H   UNL     1     113.816  93.768 125.761  1.00  0.00     0.158 HD
ENDBRANCH   2  15
BRANCH   7  18
ATOM     18  N   UNL     1     119.033  97.489 121.148  1.00  0.00    -0.346 N 
ATOM     19  C   UNL     1     120.466  97.246 121.138  1.00  0.00     0.156 C 
ATOM     20  C   UNL     1     118.568  98.139 119.925  1.00  0.00     0.120 C 
ATOM     21  C   UNL     1     120.929  97.559 119.720  1.00  0.00     0.188 C 
ATOM     22  C   UNL     1     119.831  98.424 119.106  1.00  0.00     0.069 C 
ATOM     23  F   UNL     1     121.054  96.382 118.998  1.00  0.00    -0.245 F 
BRANCH  20  24
ATOM     24  C   UNL     1     117.808  99.420 120.223  1.00  0.00     0.013 A 
ATOM     25  C   UNL     1     116.437  99.526 119.918  1.00  0.00     0.048 A 
ATOM     26  C   UNL     1     118.453 100.502 120.853  1.00  0.00     0.128 A 
ATOM     27  C   UNL     1     115.735 100.699 120.207  1.00  0.00     0.123 A 
ATOM     28  C   UNL     1     117.744 101.674 121.140  1.00  0.00     0.042 A 
ATOM     29  C   UNL     1     116.390 101.774 120.814  1.00  0.00     0.042 A 
ATOM     30  F   UNL     1     119.765 100.428 121.190  1.00  0.00    -0.207 F 
ATOM     31  F   UNL     1     114.418 100.794 119.900  1.00  0.00    -0.207 F 
ENDBRANCH  20  24
ENDBRANCH   7  18
TORSDOF 4
ENDMDL
MODEL 9
REMARK VINA RESULT:      -7.3     13.855     15.981
REMARK SMILES NC(=O)c1c(N)nn2ccc(N3C[C@@H](F)C[C@@H]3c3cc(F)ccc3F)nc12
REMARK SMILES IDX 4 1 5 2 7 3 8 4 9 5 10 6 11 7 26 8 27 9 2 10 1 11 3 12 6 15
REMARK SMILES IDX 12 18 13 19 17 20 14 21 16 22 15 23 18 24 19 25 24 26 20 27
REMARK SMILES IDX 23 28 22 29 25 30 21 31
REMARK H PARENT 1 13 1 14 6 16 6 17
ROOT
ATOM      1  C   UNL     1     106.518  94.936 112.557  1.00  0.00     0.128 A 
ATOM      2  C   UNL     1     107.458  93.914 112.374  1.00  0.00     0.161 A 
ATOM      3  N   UNL     1     107.800  93.352 113.558  1.00  0.00    -0.148 NA
ATOM      4  N   UNL     1     107.100  93.987 114.482  1.00  0.00    -0.219 N 
ATOM      5  C   UNL     1     107.101  93.741 115.813  1.00  0.00     0.119 A 
ATOM      6  C   UNL     1     106.257  94.511 116.625  1.00  0.00     0.067 A 
ATOM      7  C   UNL     1     105.442  95.505 116.025  1.00  0.00     0.133 A 
ATOM      8  N   UNL     1     105.492  95.687 114.669  1.00  0.00    -0.211 NA
ATOM      9  C   UNL     1     106.332  94.928 113.925  1.00  0.00     0.172 A 
ENDROOT
BRANCH   1  10
ATOM     10  C   UNL     1     105.848  95.778 111.543  1.00  0.00     0.256 C 
ATOM     11  N   UNL     1     104.603  96.421 111.824  1.00  0.00    -0.365 N 
ATOM     12  O   UNL     1     106.374  95.932 110.409  1.00  0.00    -0.269 OA
ATOM     13  H   UNL     1     104.159  96.305 112.746  1.00  0.00     0.159 HD
ATOM     14  H   UNL     1     104.149  96.999 111.102  1.00  0.00     0.159 HD
ENDBRANCH   1  10
BRANCH   2  15
ATOM     15  N   UNL     1     108.036  93.509 111.132  1.00  0.00    -0.381 N 
ATOM     16  H   UNL     1     108.915  93.939 110.809  1.00  0.00     0.158 HD
ATOM     17  H   UNL     1     107.574  92.788 110.560  1.00  0.00     0.158 HD
ENDBRANCH   2  15
BRANCH   7  18
ATOM     18  N   UNL     1     104.555  96.324 116.813  1.00  0.00    -0.346 N 
ATOM     19  C   UNL     1     104.985  97.579 117.406  1.00  0.00     0.156 C 
ATOM     20  C   UNL     1     103.140  96.049 117.050  1.00  0.00     0.120 C 
ATOM     21  C   UNL     1     103.711  98.275 117.871  1.00  0.00     0.188 C 
ATOM     22  C   UNL     1     102.648  97.182 117.957  1.00  0.00     0.069 C 
ATOM     23  F   UNL     1     103.328  99.224 116.937  1.00  0.00    -0.245 F 
BRANCH  20  24
ATOM     24  C   UNL     1     102.932  94.694 117.702  1.00  0.00     0.013 A 
ATOM     25  C   UNL     1     102.985  94.559 119.103  1.00  0.00     0.048 A 
ATOM     26  C   UNL     1     102.632  93.563 116.918  1.00  0.00     0.128 A 
ATOM     27  C   UNL     1     102.777  93.314 119.703  1.00  0.00     0.123 A 
ATOM     28  C   UNL     1     102.425  92.320 117.526  1.00  0.00     0.042 A 
ATOM     29  C   UNL     1     102.501  92.195 118.915  1.00  0.00     0.042 A 
ATOM     30  F   UNL     1     102.542  93.659 115.567  1.00  0.00    -0.207 F 
ATOM     31  F   UNL     1     102.841  93.193 121.052  1.00  0.00    -0.207 F 
ENDBRANCH  20  24
ENDBRANCH   7  18
TORSDOF 4
ENDMDL
MODEL 10
REMARK VINA RESULT:      -7.3     13.204     15.888
REMARK SMILES NC(=O)c1c(N)nn2ccc(N3C[C@@H](F)C[C@@H]3c3cc(F)ccc3F)nc12
REMARK SMILES IDX 4 1 5 2 7 3 8 4 9 5 10 6 11 7 26 8 27 9 2 10 1 11 3 12 6 15
REMARK SMILES IDX 12 18 13 19 17 20 14 21 16 22 15 23 18 24 19 25 24 26 20 27
REMARK SMILES IDX 23 28 22 29 25 30 21 31
REMARK H PARENT 1 13 1 14 6 16 6 17
ROOT
ATOM      1  C   UNL     1     105.696  95.476 117.490  1.00  0.00     0.128 A 
ATOM      2  C   UNL     1     106.591  94.834 118.355  1.00  0.00     0.161 A 
ATOM      3  N   UNL     1     106.722  93.525 118.034  1.00  0.00    -0.148 NA
ATOM      4  N   UNL     1     105.938  93.323 116.989  1.00  0.00    -0.219 N 
ATOM      5  C   UNL     1     105.769  92.163 116.312  1.00  0.00     0.119 A 
ATOM      6  C   UNL     1     104.910  92.166 115.204  1.00  0.00     0.067 A 
ATOM      7  C   UNL     1     104.260  93.373 114.840  1.00  0.00     0.133 A 
ATOM      8  N   UNL     1     104.488  94.507 115.571  1.00  0.00    -0.211 NA
ATOM      9  C   UNL     1     105.317  94.455 116.642  1.00  0.00     0.172 A 
ENDROOT
BRANCH   1  10
ATOM     10  C   UNL     1     105.293  96.898 117.454  1.00  0.00     0.256 C 
ATOM     11  N   UNL     1     104.957  97.538 116.221  1.00  0.00    -0.365 N 
ATOM     12  O   UNL     1     105.250  97.565 118.521  1.00  0.00    -0.269 OA
ATOM     13  H   UNL     1     104.988  97.007 115.339  1.00  0.00     0.159 HD
ATOM     14  H   UNL     1     104.684  98.531 116.216  1.00  0.00     0.159 HD
ENDBRANCH   1  10
BRANCH   2  15
ATOM     15  N   UNL     1     107.270  95.428 119.463  1.00  0.00    -0.381 N 
ATOM     16  H   UNL     1     107.921  94.865 120.029  1.00  0.00     0.158 HD
ATOM     17  H   UNL     1     107.108  96.418 119.695  1.00  0.00     0.158 HD
ENDBRANCH   2  15
BRANCH   7  18
ATOM     18  N   UNL     1     103.367  93.433 113.709  1.00  0.00    -0.346 N 
ATOM     19  C   UNL     1     102.642  92.266 113.235  1.00  0.00     0.156 C 
ATOM     20  C   UNL     1     103.029  94.643 112.964  1.00  0.00     0.120 C 
ATOM     21  C   UNL     1     101.597  92.796 112.261  1.00  0.00     0.188 C 
ATOM     22  C   UNL     1     102.077  94.188 111.853  1.00  0.00     0.069 C 
ATOM     23  F   UNL     1     100.370  92.895 112.897  1.00  0.00    -0.245 F 
BRANCH  20  24
ATOM     24  C   UNL     1     104.264  95.312 112.388  1.00  0.00     0.013 A 
ATOM     25  C   UNL     1     105.169  94.582 111.592  1.00  0.00     0.048 A 
ATOM     26  C   UNL     1     104.495  96.685 112.600  1.00  0.00     0.128 A 
ATOM     27  C   UNL     1     106.296  95.204 111.050  1.00  0.00     0.123 A 
ATOM     28  C   UNL     1     105.626  97.301 112.052  1.00  0.00     0.042 A 
ATOM     29  C   UNL     1     106.526  96.561 111.282  1.00  0.00     0.042 A 
ATOM     30  F   UNL     1     103.631  97.430 113.334  1.00  0.00    -0.207 F 
ATOM     31  F   UNL     1     107.165  94.489 110.293  1.00  0.00    -0.207 F 
ENDBRANCH  20  24
ENDBRANCH   7  18
TORSDOF 4
ENDMDL
MODEL 11
REMARK VINA RESULT:      -7.2     13.443     16.036
REMARK SMILES NC(=O)c1c(N)nn2ccc(N3C[C@@H](F)C[C@@H]3c3cc(F)ccc3F)nc12
REMARK SMILES IDX 4 1 5 2 7 3 8 4 9 5 10 6 11 7 26 8 27 9 2 10 1 11 3 12 6 15
REMARK SMILES IDX 12 18 13 19 17 20 14 21 16 22 15 23 18 24 19 25 24 26 20 27
REMARK SMILES IDX 23 28 22 29 25 30 21 31
REMARK H PARENT 1 13 1 14 6 16 6 17
ROOT
ATOM      1  C   UNL     1     106.442  95.318 112.677  1.00  0.00     0.128 A 
ATOM      2  C   UNL     1     106.852  94.295 111.813  1.00  0.00     0.161 A 
ATOM      3  N   UNL     1     106.901  93.105 112.459  1.00  0.00    -0.148 NA
ATOM      4  N   UNL     1     106.530  93.347 113.704  1.00  0.00    -0.219 N 
ATOM      5  C   UNL     1     106.407  92.444 114.705  1.00  0.00     0.119 A 
ATOM      6  C   UNL     1     105.966  92.902 115.954  1.00  0.00     0.067 A 
ATOM      7  C   UNL     1     105.667  94.279 116.116  1.00  0.00     0.133 A 
ATOM      8  N   UNL     1     105.809  95.129 115.053  1.00  0.00    -0.211 NA
ATOM      9  C   UNL     1     106.251  94.644 113.867  1.00  0.00     0.172 A 
ENDROOT
BRANCH   1  10
ATOM     10  C   UNL     1     106.215  96.749 112.385  1.00  0.00     0.256 C 
ATOM     11  N   UNL     1     106.340  97.740 113.407  1.00  0.00    -0.365 N 
ATOM     12  O   UNL     1     105.899  97.109 111.220  1.00  0.00    -0.269 OA
ATOM     13  H   UNL     1     106.597  97.462 114.366  1.00  0.00     0.159 HD
ATOM     14  H   UNL     1     106.172  98.731 113.186  1.00  0.00     0.159 HD
ENDBRANCH   1  10
BRANCH   2  15
ATOM     15  N   UNL     1     107.217  94.443 110.440  1.00  0.00    -0.381 N 
ATOM     16  H   UNL     1     107.129  95.361 109.981  1.00  0.00     0.158 HD
ATOM     17  H   UNL     1     107.568  93.632 109.910  1.00  0.00     0.158 HD
ENDBRANCH   2  15
BRANCH   7  18
ATOM     18  N   UNL     1     105.208  94.803 117.379  1.00  0.00    -0.346 N 
ATOM     19  C   UNL     1     106.129  95.214 118.426  1.00  0.00     0.156 C 
ATOM     20  C   UNL     1     103.813  95.050 117.733  1.00  0.00     0.120 C 
ATOM     21  C   UNL     1     105.289  95.984 119.437  1.00  0.00     0.188 C 
ATOM     22  C   UNL     1     103.842  95.575 119.173  1.00  0.00     0.069 C 
ATOM     23  F   UNL     1     105.434  97.346 119.227  1.00  0.00    -0.245 F 
BRANCH  20  24
ATOM     24  C   UNL     1     102.973  93.790 117.626  1.00  0.00     0.013 A 
ATOM     25  C   UNL     1     102.837  92.924 118.729  1.00  0.00     0.048 A 
ATOM     26  C   UNL     1     102.279  93.494 116.437  1.00  0.00     0.128 A 
ATOM     27  C   UNL     1     102.051  91.773 118.634  1.00  0.00     0.123 A 
ATOM     28  C   UNL     1     101.493  92.340 116.349  1.00  0.00     0.042 A 
ATOM     29  C   UNL     1     101.383  91.479 117.444  1.00  0.00     0.042 A 
ATOM     30  F   UNL     1     102.360  94.318 115.362  1.00  0.00    -0.207 F 
ATOM     31  F   UNL     1     101.935  90.942 119.699  1.00  0.00    -0.207 F 
ENDBRANCH  20  24
ENDBRANCH   7  18
TORSDOF 4
ENDMDL
MODEL 12
REMARK VINA RESULT:      -7.1     13.981     16.462
REMARK SMILES NC(=O)c1c(N)nn2ccc(N3C[C@@H](F)C[C@@H]3c3cc(F)ccc3F)nc12
REMARK SMILES IDX 4 1 5 2 7 3 8 4 9 5 10 6 11 7 26 8 27 9 2 10 1 11 3 12 6 15
REMARK SMILES IDX 12 18 13 19 17 20 14 21 16 22 15 23 18 24 19 25 24 26 20 27
REMARK SMILES IDX 23 28 22 29 25 30 21 31
REMARK H PARENT 1 13 1 14 6 16 6 17
ROOT
ATOM      1  C   UNL     1     106.574  95.127 112.390  1.00  0.00     0.128 A 
ATOM      2  C   UNL     1     107.366  93.972 112.342  1.00  0.00     0.161 A 
ATOM      3  N   UNL     1     107.503  93.426 113.574  1.00  0.00    -0.148 NA
ATOM      4  N   UNL     1     106.817  94.200 114.398  1.00  0.00    -0.219 N 
ATOM      5  C   UNL     1     106.652  94.024 115.729  1.00  0.00     0.119 A 
ATOM      6  C   UNL     1     105.855  94.946 116.421  1.00  0.00     0.067 A 
ATOM      7  C   UNL     1     105.259  96.016 115.705  1.00  0.00     0.133 A 
ATOM      8  N   UNL     1     105.468  96.122 114.356  1.00  0.00    -0.211 NA
ATOM      9  C   UNL     1     106.256  95.214 113.731  1.00  0.00     0.172 A 
ENDROOT
BRANCH   1  10
ATOM     10  C   UNL     1     106.140  96.005 111.283  1.00  0.00     0.256 C 
ATOM     11  N   UNL     1     105.276  97.118 111.521  1.00  0.00    -0.365 N 
ATOM     12  O   UNL     1     106.527  95.770 110.108  1.00  0.00    -0.269 OA
ATOM     13  H   UNL     1     104.950  97.324 112.476  1.00  0.00     0.159 HD
ATOM     14  H   UNL     1     104.980  97.715 110.736  1.00  0.00     0.159 HD
ENDBRANCH   1  10
BRANCH   2  15
ATOM     15  N   UNL     1     107.998  93.427 111.182  1.00  0.00    -0.381 N 
ATOM     16  H   UNL     1     107.786  93.814 110.252  1.00  0.00     0.158 HD
ATOM     17  H   UNL     1     108.664  92.648 111.278  1.00  0.00     0.158 HD
ENDBRANCH   2  15
BRANCH   7  18
ATOM     18  N   UNL     1     104.429  96.992 116.367  1.00  0.00    -0.346 N 
ATOM     19  C   UNL     1     104.737  97.495 117.696  1.00  0.00     0.156 C 
ATOM     20  C   UNL     1     103.255  97.636 115.784  1.00  0.00     0.120 C 
ATOM     21  C   UNL     1     103.834  98.704 117.900  1.00  0.00     0.188 C 
ATOM     22  C   UNL     1     102.709  98.561 116.877  1.00  0.00     0.069 C 
ATOM     23  F   UNL     1     104.545  99.868 117.651  1.00  0.00    -0.245 F 
BRANCH  20  24
ATOM     24  C   UNL     1     102.212  96.621 115.353  1.00  0.00     0.013 A 
ATOM     25  C   UNL     1     101.632  95.747 116.294  1.00  0.00     0.048 A 
ATOM     26  C   UNL     1     101.773  96.572 114.016  1.00  0.00     0.128 A 
ATOM     27  C   UNL     1     100.660  94.824 115.899  1.00  0.00     0.123 A 
ATOM     28  C   UNL     1     100.799  95.646 113.628  1.00  0.00     0.042 A 
ATOM     29  C   UNL     1     100.247  94.771 114.567  1.00  0.00     0.042 A 
ATOM     30  F   UNL     1     102.284  97.417 113.086  1.00  0.00    -0.207 F 
ATOM     31  F   UNL     1     100.116  93.982 116.812  1.00  0.00    -0.207 F 
ENDBRANCH  20  24
ENDBRANCH   7  18
TORSDOF 4
ENDMDL
MODEL 13
REMARK VINA RESULT:      -7.1      3.653      5.782
REMARK SMILES NC(=O)c1c(N)nn2ccc(N3C[C@@H](F)C[C@@H]3c3cc(F)ccc3F)nc12
REMARK SMILES IDX 4 1 5 2 7 3 8 4 9 5 10 6 11 7 26 8 27 9 2 10 1 11 3 12 6 15
REMARK SMILES IDX 12 18 13 19 17 20 14 21 16 22 15 23 18 24 19 25 24 26 20 27
REMARK SMILES IDX 23 28 22 29 25 30 21 31
REMARK H PARENT 1 13 1 14 6 16 6 17
ROOT
ATOM      1  C   UNL     1     117.248 101.182 119.823  1.00  0.00     0.128 A 
ATOM      2  C   UNL     1     117.304 102.369 120.565  1.00  0.00     0.161 A 
ATOM      3  N   UNL     1     117.247 102.113 121.894  1.00  0.00    -0.148 NA
ATOM      4  N   UNL     1     117.161 100.800 122.012  1.00  0.00    -0.219 N 
ATOM      5  C   UNL     1     117.107 100.090 123.163  1.00  0.00     0.119 A 
ATOM      6  C   UNL     1     117.050  98.692 123.072  1.00  0.00     0.067 A 
ATOM      7  C   UNL     1     117.054  98.084 121.791  1.00  0.00     0.133 A 
ATOM      8  N   UNL     1     117.119  98.871 120.673  1.00  0.00    -0.211 NA
ATOM      9  C   UNL     1     117.159 100.219 120.808  1.00  0.00     0.172 A 
ENDROOT
BRANCH   1  10
ATOM     10  C   UNL     1     117.320 100.995 118.358  1.00  0.00     0.256 C 
ATOM     11  N   UNL     1     117.748  99.754 117.794  1.00  0.00    -0.365 N 
ATOM     12  O   UNL     1     117.008 101.942 117.589  1.00  0.00    -0.269 OA
ATOM     13  H   UNL     1     118.007  98.969 118.409  1.00  0.00     0.159 HD
ATOM     14  H   UNL     1     117.796  99.644 116.771  1.00  0.00     0.159 HD
ENDBRANCH   1  10
BRANCH   2  15
ATOM     15  N   UNL     1     117.373 103.694 120.036  1.00  0.00    -0.381 N 
ATOM     16  H   UNL     1     116.511 104.180 119.752  1.00  0.00     0.158 HD
ATOM     17  H   UNL     1     118.285 104.163 119.940  1.00  0.00     0.158 HD
ENDBRANCH   2  15
BRANCH   7  18
ATOM     18  N   UNL     1     116.998  96.651 121.640  1.00  0.00    -0.346 N 
ATOM     19  C   UNL     1     116.257  95.805 122.561  1.00  0.00     0.156 C 
ATOM     20  C   UNL     1     117.596  95.894 120.543  1.00  0.00     0.120 C 
ATOM     21  C   UNL     1     116.181  94.436 121.895  1.00  0.00     0.188 C 
ATOM     22  C   UNL     1     117.290  94.424 120.845  1.00  0.00     0.069 C 
ATOM     23  F   UNL     1     114.951  94.283 121.276  1.00  0.00    -0.245 F 
BRANCH  20  24
ATOM     24  C   UNL     1     119.092  96.133 120.444  1.00  0.00     0.013 A 
ATOM     25  C   UNL     1     119.943  95.797 121.515  1.00  0.00     0.048 A 
ATOM     26  C   UNL     1     119.655  96.649 119.260  1.00  0.00     0.128 A 
ATOM     27  C   UNL     1     121.322  96.003 121.416  1.00  0.00     0.123 A 
ATOM     28  C   UNL     1     121.037  96.851 119.168  1.00  0.00     0.042 A 
ATOM     29  C   UNL     1     121.868  96.533 120.245  1.00  0.00     0.042 A 
ATOM     30  F   UNL     1     118.873  96.956 118.195  1.00  0.00    -0.207 F 
ATOM     31  F   UNL     1     122.131  95.685 122.457  1.00  0.00    -0.207 F 
ENDBRANCH  20  24
ENDBRANCH   7  18
TORSDOF 4
ENDMDL
MODEL 14
REMARK VINA RESULT:      -7.1      3.651      5.357
REMARK SMILES NC(=O)c1c(N)nn2ccc(N3C[C@@H](F)C[C@@H]3c3cc(F)ccc3F)nc12
REMARK SMILES IDX 4 1 5 2 7 3 8 4 9 5 10 6 11 7 26 8 27 9 2 10 1 11 3 12 6 15
REMARK SMILES IDX 12 18 13 19 17 20 14 21 16 22 15 23 18 24 19 25 24 26 20 27
REMARK SMILES IDX 23 28 22 29 25 30 21 31
REMARK H PARENT 1 13 1 14 6 16 6 17
ROOT
ATOM      1  C   UNL     1     115.288 100.853 121.194  1.00  0.00     0.128 A 
ATOM      2  C   UNL     1     115.671 101.948 121.979  1.00  0.00     0.161 A 
ATOM      3  N   UNL     1     116.509 101.564 122.971  1.00  0.00    -0.148 NA
ATOM      4  N   UNL     1     116.669 100.260 122.833  1.00  0.00    -0.219 N 
ATOM      5  C   UNL     1     117.447  99.452 123.591  1.00  0.00     0.119 A 
ATOM      6  C   UNL     1     117.505  98.092 123.257  1.00  0.00     0.067 A 
ATOM      7  C   UNL     1     116.756  97.622 122.148  1.00  0.00     0.133 A 
ATOM      8  N   UNL     1     115.999  98.503 121.426  1.00  0.00    -0.211 NA
ATOM      9  C   UNL     1     115.962  99.808 121.793  1.00  0.00     0.172 A 
ENDROOT
BRANCH   1  10
ATOM     10  C   UNL     1     114.425 100.823 119.994  1.00  0.00     0.256 C 
ATOM     11  N   UNL     1     113.756  99.625 119.596  1.00  0.00    -0.365 N 
ATOM     12  O   UNL     1     114.276 101.865 119.303  1.00  0.00    -0.269 OA
ATOM     13  H   UNL     1     113.867  98.763 120.151  1.00  0.00     0.159 HD
ATOM     14  H   UNL     1     113.163  99.622 118.754  1.00  0.00     0.159 HD
ENDBRANCH   1  10
BRANCH   2  15
ATOM     15  N   UNL     1     115.233 103.299 121.818  1.00  0.00    -0.381 N 
ATOM     16  H   UNL     1     115.191 103.926 122.633  1.00  0.00     0.158 HD
ATOM     17  H   UNL     1     114.959 103.643 120.886  1.00  0.00     0.158 HD
ENDBRANCH   2  15
BRANCH   7  18
ATOM     18  N   UNL     1     116.780  96.233 121.761  1.00  0.00    -0.346 N 
ATOM     19  C   UNL     1     116.116  95.201 122.540  1.00  0.00     0.156 C 
ATOM     20  C   UNL     1     117.391  95.708 120.542  1.00  0.00     0.120 C 
ATOM     21  C   UNL     1     116.103  93.960 121.656  1.00  0.00     0.188 C 
ATOM     22  C   UNL     1     117.180  94.191 120.599  1.00  0.00     0.069 C 
ATOM     23  F   UNL     1     114.867  93.834 121.042  1.00  0.00    -0.245 F 
BRANCH  20  24
ATOM     24  C   UNL     1     118.867  96.053 120.457  1.00  0.00     0.013 A 
ATOM     25  C   UNL     1     119.756  95.650 121.473  1.00  0.00     0.048 A 
ATOM     26  C   UNL     1     119.375  96.740 119.338  1.00  0.00     0.128 A 
ATOM     27  C   UNL     1     121.117  95.955 121.385  1.00  0.00     0.123 A 
ATOM     28  C   UNL     1     120.739  97.041 119.256  1.00  0.00     0.042 A 
ATOM     29  C   UNL     1     121.607  96.653 120.280  1.00  0.00     0.042 A 
ATOM     30  F   UNL     1     118.557  97.119 118.324  1.00  0.00    -0.207 F 
ATOM     31  F   UNL     1     121.962  95.570 122.373  1.00  0.00    -0.207 F 
ENDBRANCH  20  24
ENDBRANCH   7  18
TORSDOF 4
ENDMDL
MODEL 15
REMARK VINA RESULT:      -7.0     14.070     16.270
REMARK SMILES NC(=O)c1c(N)nn2ccc(N3C[C@@H](F)C[C@@H]3c3cc(F)ccc3F)nc12
REMARK SMILES IDX 4 1 5 2 7 3 8 4 9 5 10 6 11 7 26 8 27 9 2 10 1 11 3 12 6 15
REMARK SMILES IDX 12 18 13 19 17 20 14 21 16 22 15 23 18 24 19 25 24 26 20 27
REMARK SMILES IDX 23 28 22 29 25 30 21 31
REMARK H PARENT 1 13 1 14 6 16 6 17
ROOT
ATOM      1  C   UNL     1     106.943  94.212 112.666  1.00  0.00     0.128 A 
ATOM      2  C   UNL     1     106.947  94.411 111.279  1.00  0.00     0.161 A 
ATOM      3  N   UNL     1     106.114  95.421 110.931  1.00  0.00    -0.148 NA
ATOM      4  N   UNL     1     105.587  95.867 112.058  1.00  0.00    -0.219 N 
ATOM      5  C   UNL     1     104.714  96.892 112.197  1.00  0.00     0.119 A 
ATOM      6  C   UNL     1     104.297  97.231 113.491  1.00  0.00     0.067 A 
ATOM      7  C   UNL     1     104.803  96.495 114.593  1.00  0.00     0.133 A 
ATOM      8  N   UNL     1     105.690  95.477 114.372  1.00  0.00    -0.211 NA
ATOM      9  C   UNL     1     106.055  95.175 113.102  1.00  0.00     0.172 A 
ENDROOT
BRANCH   1  10
ATOM     10  C   UNL     1     107.728  93.253 113.471  1.00  0.00     0.256 C 
ATOM     11  N   UNL     1     107.094  92.404 114.430  1.00  0.00    -0.365 N 
ATOM     12  O   UNL     1     108.976  93.181 113.321  1.00  0.00    -0.269 OA
ATOM     13  H   UNL     1     106.074  92.450 114.566  1.00  0.00     0.159 HD
ATOM     14  H   UNL     1     107.659  91.745 114.986  1.00  0.00     0.159 HD
ENDBRANCH   1  10
BRANCH   2  15
ATOM     15  N   UNL     1     107.684  93.653 110.318  1.00  0.00    -0.381 N 
ATOM     16  H   UNL     1     107.616  93.886 109.317  1.00  0.00     0.158 HD
ATOM     17  H   UNL     1     108.283  92.874 110.627  1.00  0.00     0.158 HD
ENDBRANCH   2  15
BRANCH   7  18
ATOM     18  N   UNL     1     104.409  96.803 115.946  1.00  0.00    -0.346 N 
ATOM     19  C   UNL     1     105.256  97.571 116.843  1.00  0.00     0.156 C 
ATOM     20  C   UNL     1     103.124  96.459 116.548  1.00  0.00     0.120 C 
ATOM     21  C   UNL     1     104.374  97.942 118.029  1.00  0.00     0.188 C 
ATOM     22  C   UNL     1     103.197  96.970 117.991  1.00  0.00     0.069 C 
ATOM     23  F   UNL     1     103.911  99.240 117.881  1.00  0.00    -0.245 F 
BRANCH  20  24
ATOM     24  C   UNL     1     102.865  94.963 116.509  1.00  0.00     0.013 A 
ATOM     25  C   UNL     1     103.339  94.128 117.539  1.00  0.00     0.048 A 
ATOM     26  C   UNL     1     102.106  94.398 115.466  1.00  0.00     0.128 A 
ATOM     27  C   UNL     1     103.087  92.754 117.510  1.00  0.00     0.123 A 
ATOM     28  C   UNL     1     101.856  93.021 115.444  1.00  0.00     0.042 A 
ATOM     29  C   UNL     1     102.349  92.201 116.461  1.00  0.00     0.042 A 
ATOM     30  F   UNL     1     101.605  95.173 114.472  1.00  0.00    -0.207 F 
ATOM     31  F   UNL     1     103.556  91.958 118.502  1.00  0.00    -0.207 F 
ENDBRANCH  20  24
ENDBRANCH   7  18
TORSDOF 4
ENDMDL
