MODEL 1
REMARK VINA RESULT:      -8.6      0.000      0.000
REMARK SMILES CC1=C(C)C(=O)O[C@@H]([C@]2(C)O[C@@H](O)[C@]34CC[C@H]5[C@@H](CC=C6[C@@H](O)C=CC(=O)[C@@]65C)[C@@H]3CC[C@H]24)C1
REMARK SMILES IDX 9 1 10 2 11 3 12 4 14 5 15 6 16 7 17 8 18 9 19 10 20 11
REMARK SMILES IDX 21 12 22 13 24 14 25 15 26 16 27 17 28 18 29 19 30 20 31 21
REMARK SMILES IDX 32 22 33 23 8 24 2 25 3 26 34 27 5 28 6 29 7 30 1 31 4 32
REMARK SMILES IDX 13 33 23 35
REMARK H PARENT 13 34 23 36
ROOT
ATOM      1  C   UNL     1     102.973  96.365 119.521  1.00  0.00     0.109 C 
ATOM      2  C   UNL     1     102.218  97.714 119.551  1.00  0.00     0.047 C 
ATOM      3  O   UNL     1     102.287  95.532 118.608  1.00  0.00    -0.342 OA
ATOM      4  C   UNL     1     103.225  95.048 117.675  1.00  0.00     0.254 C 
ATOM      5  C   UNL     1     104.348  96.109 117.529  1.00  0.00     0.030 C 
ATOM      6  C   UNL     1     104.050  97.180 116.447  1.00  0.00     0.013 C 
ATOM      7  C   UNL     1     104.251  96.646 115.001  1.00  0.00     0.006 C 
ATOM      8  C   UNL     1     105.552  95.789 114.762  1.00  0.00     0.011 C 
ATOM      9  C   UNL     1     105.821  94.796 115.937  1.00  0.00     0.001 C 
ATOM     10  C   UNL     1     107.204  94.158 115.771  1.00  0.00     0.031 C 
ATOM     11  C   UNL     1     107.404  93.585 114.404  1.00  0.00    -0.023 C 
ATOM     12  C   UNL     1     106.791  94.058 113.298  1.00  0.00    -0.028 C 
ATOM     13  C   UNL     1     107.222  93.476 111.959  1.00  0.00     0.164 C 
ATOM     14  C   UNL     1     106.990  94.417 110.805  1.00  0.00     0.012 C 
ATOM     15  C   UNL     1     106.368  95.589 110.930  1.00  0.00     0.047 C 
ATOM     16  C   UNL     1     105.794  96.030 112.210  1.00  0.00     0.165 C 
ATOM     17  O   UNL     1     105.385  97.217 112.292  1.00  0.00    -0.294 OA
ATOM     18  C   UNL     1     105.610  95.045 113.361  1.00  0.00     0.057 C 
ATOM     19  C   UNL     1     104.311  94.244 113.086  1.00  0.00     0.025 C 
ATOM     20  C   UNL     1     105.755  95.581 117.259  1.00  0.00     0.004 C 
ATOM     21  C   UNL     1     106.194  94.925 118.552  1.00  0.00     0.005 C 
ATOM     22  C   UNL     1     105.625  95.870 119.609  1.00  0.00     0.008 C 
ATOM     23  C   UNL     1     104.418  96.623 118.962  1.00  0.00     0.036 C 
ENDROOT
BRANCH   1  24
ATOM     24  C   UNL     1     102.852  95.745 120.955  1.00  0.00     0.213 C 
ATOM     25  C   UNL     1     102.553  96.140 123.447  1.00  0.00    -0.059 C 
ATOM     26  C   UNL     1     101.754  95.047 123.525  1.00  0.00     0.033 C 
ATOM     27  C   UNL     1     102.870  96.778 122.109  1.00  0.00     0.079 C 
ATOM     28  C   UNL     1     101.230  94.452 122.274  1.00  0.00     0.334 C 
ATOM     29  O   UNL     1     100.329  93.574 122.304  1.00  0.00    -0.247 OA
ATOM     30  O   UNL     1     101.718  94.884 121.043  1.00  0.00    -0.456 OA
ATOM     31  C   UNL     1     103.066  96.826 124.689  1.00  0.00     0.040 C 
ATOM     32  C   UNL     1     101.355  94.454 124.855  1.00  0.00     0.052 C 
ENDBRANCH   1  24
BRANCH   4  33
ATOM     33  O   UNL     1     102.571  94.769 116.469  1.00  0.00    -0.367 OA
ATOM     34  H   UNL     1     103.221  94.397 115.820  1.00  0.00     0.213 HD
ENDBRANCH   4  33
BRANCH  13  35
ATOM     35  O   UNL     1     106.545  92.268 111.736  1.00  0.00    -0.385 OA
ATOM     36  H   UNL     1     106.027  92.025 112.544  1.00  0.00     0.211 HD
ENDBRANCH  13  35
TORSDOF 3
ENDMDL
MODEL 2
REMARK VINA RESULT:      -7.8     12.544     14.182
REMARK SMILES CC1=C(C)C(=O)O[C@@H]([C@]2(C)O[C@@H](O)[C@]34CC[C@H]5[C@@H](CC=C6[C@@H](O)C=CC(=O)[C@@]65C)[C@@H]3CC[C@H]24)C1
REMARK SMILES IDX 9 1 10 2 11 3 12 4 14 5 15 6 16 7 17 8 18 9 19 10 20 11
REMARK SMILES IDX 21 12 22 13 24 14 25 15 26 16 27 17 28 18 29 19 30 20 31 21
REMARK SMILES IDX 32 22 33 23 8 24 2 25 3 26 34 27 5 28 6 29 7 30 1 31 4 32
REMARK SMILES IDX 13 33 23 35
REMARK H PARENT 13 34 23 36
ROOT
ATOM      1  C   UNL     1     114.308 102.193 120.647  1.00  0.00     0.109 C 
ATOM      2  C   UNL     1     114.588 103.340 119.648  1.00  0.00     0.047 C 
ATOM      3  O   UNL     1     114.208 101.005 119.888  1.00  0.00    -0.342 OA
ATOM      4  C   UNL     1     115.094 100.060 120.441  1.00  0.00     0.254 C 
ATOM      5  C   UNL     1     116.280 100.832 121.080  1.00  0.00     0.030 C 
ATOM      6  C   UNL     1     117.438 101.114 120.087  1.00  0.00     0.013 C 
ATOM      7  C   UNL     1     118.304  99.856 119.799  1.00  0.00     0.006 C 
ATOM      8  C   UNL     1     118.688  98.987 121.056  1.00  0.00     0.011 C 
ATOM      9  C   UNL     1     117.488  98.822 122.041  1.00  0.00     0.001 C 
ATOM     10  C   UNL     1     117.970  98.172 123.342  1.00  0.00     0.031 C 
ATOM     11  C   UNL     1     118.759  96.926 123.097  1.00  0.00    -0.023 C 
ATOM     12  C   UNL     1     119.481  96.706 121.977  1.00  0.00    -0.028 C 
ATOM     13  C   UNL     1     120.360  95.464 121.947  1.00  0.00     0.164 C 
ATOM     14  C   UNL     1     121.537  95.596 121.016  1.00  0.00     0.012 C 
ATOM     15  C   UNL     1     121.725  96.648 120.219  1.00  0.00     0.047 C 
ATOM     16  C   UNL     1     120.749  97.745 120.139  1.00  0.00     0.165 C 
ATOM     17  O   UNL     1     121.079  98.780 119.505  1.00  0.00    -0.294 OA
ATOM     18  C   UNL     1     119.346  97.582 120.717  1.00  0.00     0.057 C 
ATOM     19  C   UNL     1     118.503  96.792 119.683  1.00  0.00     0.025 C 
ATOM     20  C   UNL     1     116.903 100.215 122.329  1.00  0.00     0.004 C 
ATOM     21  C   UNL     1     115.870 100.392 123.423  1.00  0.00     0.005 C 
ATOM     22  C   UNL     1     115.305 101.780 123.121  1.00  0.00     0.008 C 
ATOM     23  C   UNL     1     115.548 102.062 121.603  1.00  0.00     0.036 C 
ENDROOT
BRANCH   1  24
ATOM     24  C   UNL     1     112.917 102.490 121.303  1.00  0.00     0.213 C 
ATOM     25  C   UNL     1     111.386 104.184 122.419  1.00  0.00    -0.059 C 
ATOM     26  C   UNL     1     110.326 103.664 121.753  1.00  0.00     0.033 C 
ATOM     27  C   UNL     1     112.805 103.878 121.980  1.00  0.00     0.079 C 
ATOM     28  C   UNL     1     110.572 102.751 120.615  1.00  0.00     0.334 C 
ATOM     29  O   UNL     1     109.635 102.411 119.844  1.00  0.00    -0.247 OA
ATOM     30  O   UNL     1     111.860 102.278 120.370  1.00  0.00    -0.456 OA
ATOM     31  C   UNL     1     111.199 105.167 123.548  1.00  0.00     0.040 C 
ATOM     32  C   UNL     1     108.907 104.030 122.121  1.00  0.00     0.052 C 
ENDBRANCH   1  24
BRANCH   4  33
ATOM     33  O   UNL     1     115.494  99.165 119.443  1.00  0.00    -0.367 OA
ATOM     34  H   UNL     1     114.707  98.895 118.907  1.00  0.00     0.213 HD
ENDBRANCH   4  33
BRANCH  13  35
ATOM     35  O   UNL     1     119.583  94.353 121.582  1.00  0.00    -0.385 OA
ATOM     36  H   UNL     1     119.759  93.607 122.208  1.00  0.00     0.211 HD
ENDBRANCH  13  35
TORSDOF 3
ENDMDL
MODEL 3
REMARK VINA RESULT:      -7.7      1.630      9.336
REMARK SMILES CC1=C(C)C(=O)O[C@@H]([C@]2(C)O[C@@H](O)[C@]34CC[C@H]5[C@@H](CC=C6[C@@H](O)C=CC(=O)[C@@]65C)[C@@H]3CC[C@H]24)C1
REMARK SMILES IDX 9 1 10 2 11 3 12 4 14 5 15 6 16 7 17 8 18 9 19 10 20 11
REMARK SMILES IDX 21 12 22 13 24 14 25 15 26 16 27 17 28 18 29 19 30 20 31 21
REMARK SMILES IDX 32 22 33 23 8 24 2 25 3 26 34 27 5 28 6 29 7 30 1 31 4 32
REMARK SMILES IDX 13 33 23 35
REMARK H PARENT 13 34 23 36
ROOT
ATOM      1  C   UNL     1     104.705  93.681 116.368  1.00  0.00     0.109 C 
ATOM      2  C   UNL     1     104.734  92.166 116.060  1.00  0.00     0.047 C 
ATOM      3  O   UNL     1     103.345  94.057 116.443  1.00  0.00    -0.342 OA
ATOM      4  C   UNL     1     103.145  94.720 117.670  1.00  0.00     0.254 C 
ATOM      5  C   UNL     1     104.161  94.149 118.695  1.00  0.00     0.030 C 
ATOM      6  C   UNL     1     103.637  92.902 119.455  1.00  0.00     0.013 C 
ATOM      7  C   UNL     1     102.602  93.261 120.557  1.00  0.00     0.006 C 
ATOM      8  C   UNL     1     102.965  94.500 121.461  1.00  0.00     0.011 C 
ATOM      9  C   UNL     1     103.561  95.678 120.625  1.00  0.00     0.001 C 
ATOM     10  C   UNL     1     104.106  96.757 121.566  1.00  0.00     0.031 C 
ATOM     11  C   UNL     1     103.108  97.163 122.603  1.00  0.00    -0.023 C 
ATOM     12  C   UNL     1     102.145  96.343 123.076  1.00  0.00    -0.028 C 
ATOM     13  C   UNL     1     101.312  96.847 124.245  1.00  0.00     0.164 C 
ATOM     14  C   UNL     1     100.734  95.735 125.081  1.00  0.00     0.012 C 
ATOM     15  C   UNL     1     100.848  94.446 124.763  1.00  0.00     0.047 C 
ATOM     16  C   UNL     1     101.498  94.008 123.519  1.00  0.00     0.165 C 
ATOM     17  O   UNL     1     101.726  92.779 123.376  1.00  0.00    -0.294 OA
ATOM     18  C   UNL     1     101.789  95.005 122.400  1.00  0.00     0.057 C 
ATOM     19  C   UNL     1     100.474  95.213 121.607  1.00  0.00     0.025 C 
ATOM     20  C   UNL     1     104.693  95.122 119.745  1.00  0.00     0.004 C 
ATOM     21  C   UNL     1     105.602  96.071 118.991  1.00  0.00     0.005 C 
ATOM     22  C   UNL     1     106.291  95.141 117.992  1.00  0.00     0.008 C 
ATOM     23  C   UNL     1     105.356  93.908 117.780  1.00  0.00     0.036 C 
ENDROOT
BRANCH   1  24
ATOM     24  C   UNL     1     105.360  94.407 115.145  1.00  0.00     0.213 C 
ATOM     25  C   UNL     1     106.609  94.200 112.940  1.00  0.00    -0.059 C 
ATOM     26  C   UNL     1     105.875  95.219 112.429  1.00  0.00     0.033 C 
ATOM     27  C   UNL     1     106.169  93.482 114.202  1.00  0.00     0.079 C 
ATOM     28  C   UNL     1     104.656  95.656 113.148  1.00  0.00     0.334 C 
ATOM     29  O   UNL     1     103.838  96.449 112.611  1.00  0.00    -0.247 OA
ATOM     30  O   UNL     1     104.391  95.166 114.425  1.00  0.00    -0.456 OA
ATOM     31  C   UNL     1     107.825  93.671 112.222  1.00  0.00     0.040 C 
ATOM     32  C   UNL     1     106.250  95.885 111.126  1.00  0.00     0.052 C 
ENDBRANCH   1  24
BRANCH   4  33
ATOM     33  O   UNL     1     101.813  94.560 118.068  1.00  0.00    -0.367 OA
ATOM     34  H   UNL     1     101.592  95.234 118.759  1.00  0.00     0.213 HD
ENDBRANCH   4  33
BRANCH  13  35
ATOM     35  O   UNL     1     100.282  97.669 123.764  1.00  0.00    -0.385 OA
ATOM     36  H   UNL     1     100.667  98.385 123.198  1.00  0.00     0.211 HD
ENDBRANCH  13  35
TORSDOF 3
ENDMDL
MODEL 4
REMARK VINA RESULT:      -7.6     12.650     14.286
REMARK SMILES CC1=C(C)C(=O)O[C@@H]([C@]2(C)O[C@@H](O)[C@]34CC[C@H]5[C@@H](CC=C6[C@@H](O)C=CC(=O)[C@@]65C)[C@@H]3CC[C@H]24)C1
REMARK SMILES IDX 9 1 10 2 11 3 12 4 14 5 15 6 16 7 17 8 18 9 19 10 20 11
REMARK SMILES IDX 21 12 22 13 24 14 25 15 26 16 27 17 28 18 29 19 30 20 31 21
REMARK SMILES IDX 32 22 33 23 8 24 2 25 3 26 34 27 5 28 6 29 7 30 1 31 4 32
REMARK SMILES IDX 13 33 23 35
REMARK H PARENT 13 34 23 36
ROOT
ATOM      1  C   UNL     1     114.562 102.425 120.009  1.00  0.00     0.109 C 
ATOM      2  C   UNL     1     114.789 103.326 118.772  1.00  0.00     0.047 C 
ATOM      3  O   UNL     1     114.339 101.116 119.526  1.00  0.00    -0.342 OA
ATOM      4  C   UNL     1     115.236 100.252 120.184  1.00  0.00     0.254 C 
ATOM      5  C   UNL     1     116.510 101.064 120.540  1.00  0.00     0.030 C 
ATOM      6  C   UNL     1     117.575 101.068 119.412  1.00  0.00     0.013 C 
ATOM      7  C   UNL     1     118.356  99.727 119.317  1.00  0.00     0.006 C 
ATOM      8  C   UNL     1     118.826  99.110 120.689  1.00  0.00     0.011 C 
ATOM      9  C   UNL     1     117.723  99.222 121.789  1.00  0.00     0.001 C 
ATOM     10  C   UNL     1     118.305  98.823 123.149  1.00  0.00     0.031 C 
ATOM     11  C   UNL     1     119.014  97.508 123.100  1.00  0.00    -0.023 C 
ATOM     12  C   UNL     1     119.613  97.022 121.991  1.00  0.00    -0.028 C 
ATOM     13  C   UNL     1     120.432  95.748 122.143  1.00  0.00     0.164 C 
ATOM     14  C   UNL     1     121.517  95.617 121.104  1.00  0.00     0.012 C 
ATOM     15  C   UNL     1     121.668  96.471 120.093  1.00  0.00     0.047 C 
ATOM     16  C   UNL     1     120.734  97.585 119.872  1.00  0.00     0.165 C 
ATOM     17  O   UNL     1     121.042  98.449 119.010  1.00  0.00    -0.294 OA
ATOM     18  C   UNL     1     119.389  97.629 120.593  1.00  0.00     0.057 C 
ATOM     19  C   UNL     1     118.417  96.698 119.825  1.00  0.00     0.025 C 
ATOM     20  C   UNL     1     117.228 100.678 121.831  1.00  0.00     0.004 C 
ATOM     21  C   UNL     1     116.316 101.135 122.951  1.00  0.00     0.005 C 
ATOM     22  C   UNL     1     115.781 102.464 122.416  1.00  0.00     0.008 C 
ATOM     23  C   UNL     1     115.884 102.416 120.858  1.00  0.00     0.036 C 
ENDROOT
BRANCH   1  24
ATOM     24  C   UNL     1     113.256 102.933 120.709  1.00  0.00     0.213 C 
ATOM     25  C   UNL     1     110.716 102.999 120.725  1.00  0.00    -0.059 C 
ATOM     26  C   UNL     1     110.722 102.895 122.077  1.00  0.00     0.033 C 
ATOM     27  C   UNL     1     111.953 102.668 119.914  1.00  0.00     0.079 C 
ATOM     28  C   UNL     1     111.974 102.495 122.759  1.00  0.00     0.334 C 
ATOM     29  O   UNL     1     111.975 102.187 123.980  1.00  0.00    -0.247 OA
ATOM     30  O   UNL     1     113.166 102.432 122.041  1.00  0.00    -0.456 OA
ATOM     31  C   UNL     1     109.455 103.343 119.971  1.00  0.00     0.040 C 
ATOM     32  C   UNL     1     109.473 103.134 122.893  1.00  0.00     0.052 C 
ENDBRANCH   1  24
BRANCH   4  33
ATOM     33  O   UNL     1     115.498  99.149 119.362  1.00  0.00    -0.367 OA
ATOM     34  H   UNL     1     116.304  99.329 118.816  1.00  0.00     0.213 HD
ENDBRANCH   4  33
BRANCH  13  35
ATOM     35  O   UNL     1     119.579  94.636 122.087  1.00  0.00    -0.385 OA
ATOM     36  H   UNL     1     118.894  94.779 121.387  1.00  0.00     0.211 HD
ENDBRANCH  13  35
TORSDOF 3
ENDMDL
MODEL 5
REMARK VINA RESULT:      -7.3      1.742      3.276
REMARK SMILES CC1=C(C)C(=O)O[C@@H]([C@]2(C)O[C@@H](O)[C@]34CC[C@H]5[C@@H](CC=C6[C@@H](O)C=CC(=O)[C@@]65C)[C@@H]3CC[C@H]24)C1
REMARK SMILES IDX 9 1 10 2 11 3 12 4 14 5 15 6 16 7 17 8 18 9 19 10 20 11
REMARK SMILES IDX 21 12 22 13 24 14 25 15 26 16 27 17 28 18 29 19 30 20 31 21
REMARK SMILES IDX 32 22 33 23 8 24 2 25 3 26 34 27 5 28 6 29 7 30 1 31 4 32
REMARK SMILES IDX 13 33 23 35
REMARK H PARENT 13 34 23 36
ROOT
ATOM      1  C   UNL     1     102.789  93.881 119.874  1.00  0.00     0.109 C 
ATOM      2  C   UNL     1     102.608  92.385 120.221  1.00  0.00     0.047 C 
ATOM      3  O   UNL     1     104.174  94.095 119.691  1.00  0.00    -0.342 OA
ATOM      4  C   UNL     1     104.356  94.710 118.437  1.00  0.00     0.254 C 
ATOM      5  C   UNL     1     103.207  94.245 117.503  1.00  0.00     0.030 C 
ATOM      6  C   UNL     1     103.525  92.933 116.738  1.00  0.00     0.013 C 
ATOM      7  C   UNL     1     104.510  93.151 115.555  1.00  0.00     0.006 C 
ATOM      8  C   UNL     1     104.225  94.410 114.650  1.00  0.00     0.011 C 
ATOM      9  C   UNL     1     103.833  95.662 115.497  1.00  0.00     0.001 C 
ATOM     10  C   UNL     1     103.347  96.782 114.572  1.00  0.00     0.031 C 
ATOM     11  C   UNL     1     104.304  97.052 113.455  1.00  0.00    -0.023 C 
ATOM     12  C   UNL     1     105.129  96.118 112.934  1.00  0.00    -0.028 C 
ATOM     13  C   UNL     1     105.925  96.503 111.695  1.00  0.00     0.164 C 
ATOM     14  C   UNL     1     106.306  95.317 110.847  1.00  0.00     0.012 C 
ATOM     15  C   UNL     1     106.069  94.055 111.205  1.00  0.00     0.047 C 
ATOM     16  C   UNL     1     105.467  93.717 112.503  1.00  0.00     0.165 C 
ATOM     17  O   UNL     1     105.111  92.525 112.693  1.00  0.00    -0.294 OA
ATOM     18  C   UNL     1     105.378  94.758 113.615  1.00  0.00     0.057 C 
ATOM     19  C   UNL     1     106.764  94.824 114.306  1.00  0.00     0.025 C 
ATOM     20  C   UNL     1     102.713  95.256 116.471  1.00  0.00     0.004 C 
ATOM     21  C   UNL     1     101.979  96.316 117.265  1.00  0.00     0.005 C 
ATOM     22  C   UNL     1     101.264  95.490 118.334  1.00  0.00     0.008 C 
ATOM     23  C   UNL     1     102.064  94.159 118.508  1.00  0.00     0.036 C 
ENDROOT
BRANCH   1  24
ATOM     24  C   UNL     1     102.315  94.698 121.123  1.00  0.00     0.213 C 
ATOM     25  C   UNL     1     101.409  94.659 123.498  1.00  0.00    -0.059 C 
ATOM     26  C   UNL     1     102.200  95.713 123.816  1.00  0.00     0.033 C 
ATOM     27  C   UNL     1     101.664  93.848 122.242  1.00  0.00     0.079 C 
ATOM     28  C   UNL     1     103.294  96.093 122.894  1.00  0.00     0.334 C 
ATOM     29  O   UNL     1     104.175  96.924 123.242  1.00  0.00    -0.247 OA
ATOM     30  O   UNL     1     103.372  95.508 121.632  1.00  0.00    -0.456 OA
ATOM     31  C   UNL     1     100.318  94.188 124.426  1.00  0.00     0.040 C 
ATOM     32  C   UNL     1     102.016  96.476 125.107  1.00  0.00     0.052 C 
ENDBRANCH   1  24
BRANCH   4  33
ATOM     33  O   UNL     1     105.627  94.389 117.947  1.00  0.00    -0.367 OA
ATOM     34  H   UNL     1     105.569  94.204 116.976  1.00  0.00     0.213 HD
ENDBRANCH   4  33
BRANCH  13  35
ATOM     35  O   UNL     1     107.076  97.206 112.081  1.00  0.00    -0.385 OA
ATOM     36  H   UNL     1     107.080  97.320 113.065  1.00  0.00     0.211 HD
ENDBRANCH  13  35
TORSDOF 3
ENDMDL
MODEL 6
REMARK VINA RESULT:      -7.2     11.921     13.542
REMARK SMILES CC1=C(C)C(=O)O[C@@H]([C@]2(C)O[C@@H](O)[C@]34CC[C@H]5[C@@H](CC=C6[C@@H](O)C=CC(=O)[C@@]65C)[C@@H]3CC[C@H]24)C1
REMARK SMILES IDX 9 1 10 2 11 3 12 4 14 5 15 6 16 7 17 8 18 9 19 10 20 11
REMARK SMILES IDX 21 12 22 13 24 14 25 15 26 16 27 17 28 18 29 19 30 20 31 21
REMARK SMILES IDX 32 22 33 23 8 24 2 25 3 26 34 27 5 28 6 29 7 30 1 31 4 32
REMARK SMILES IDX 13 33 23 35
REMARK H PARENT 13 34 23 36
ROOT
ATOM      1  C   UNL     1     113.563 102.001 120.392  1.00  0.00     0.109 C 
ATOM      2  C   UNL     1     113.759 103.207 119.445  1.00  0.00     0.047 C 
ATOM      3  O   UNL     1     113.644 100.837 119.595  1.00  0.00    -0.342 OA
ATOM      4  C   UNL     1     114.604  99.982 120.172  1.00  0.00     0.254 C 
ATOM      5  C   UNL     1     115.654 100.863 120.900  1.00  0.00     0.030 C 
ATOM      6  C   UNL     1     116.824 101.313 119.986  1.00  0.00     0.013 C 
ATOM      7  C   UNL     1     117.846 100.174 119.713  1.00  0.00     0.006 C 
ATOM      8  C   UNL     1     118.261  99.312 120.965  1.00  0.00     0.011 C 
ATOM      9  C   UNL     1     117.036  98.974 121.873  1.00  0.00     0.001 C 
ATOM     10  C   UNL     1     117.520  98.339 123.181  1.00  0.00     0.031 C 
ATOM     11  C   UNL     1     118.462  97.202 122.946  1.00  0.00    -0.023 C 
ATOM     12  C   UNL     1     119.266  97.107 121.866  1.00  0.00    -0.028 C 
ATOM     13  C   UNL     1     120.284  95.977 121.851  1.00  0.00     0.164 C 
ATOM     14  C   UNL     1     121.487  96.278 120.994  1.00  0.00     0.012 C 
ATOM     15  C   UNL     1     121.594  97.372 120.240  1.00  0.00     0.047 C 
ATOM     16  C   UNL     1     120.501  98.350 120.134  1.00  0.00     0.165 C 
ATOM     17  O   UNL     1     120.741  99.439 119.551  1.00  0.00    -0.294 OA
ATOM     18  C   UNL     1     119.097  98.006 120.625  1.00  0.00     0.057 C 
ATOM     19  C   UNL     1     118.411  97.160 119.521  1.00  0.00     0.025 C 
ATOM     20  C   UNL     1     116.277 100.279 122.166  1.00  0.00     0.004 C 
ATOM     21  C   UNL     1     115.172 100.296 123.203  1.00  0.00     0.005 C 
ATOM     22  C   UNL     1     114.465 101.619 122.907  1.00  0.00     0.008 C 
ATOM     23  C   UNL     1     114.755 101.980 121.415  1.00  0.00     0.036 C 
ENDROOT
BRANCH   1  24
ATOM     24  C   UNL     1     112.112 102.111 120.974  1.00  0.00     0.213 C 
ATOM     25  C   UNL     1     109.674 102.701 120.567  1.00  0.00    -0.059 C 
ATOM     26  C   UNL     1     109.292 101.650 121.334  1.00  0.00     0.033 C 
ATOM     27  C   UNL     1     111.091 102.802 120.037  1.00  0.00     0.079 C 
ATOM     28  C   UNL     1     110.294 100.619 121.688  1.00  0.00     0.334 C 
ATOM     29  O   UNL     1     109.943  99.531 122.217  1.00  0.00    -0.247 OA
ATOM     30  O   UNL     1     111.642 100.837 121.410  1.00  0.00    -0.456 OA
ATOM     31  C   UNL     1     108.685 103.750 120.124  1.00  0.00     0.040 C 
ATOM     32  C   UNL     1     107.862 101.488 121.795  1.00  0.00     0.052 C 
ENDBRANCH   1  24
BRANCH   4  33
ATOM     33  O   UNL     1     115.161  99.175 119.174  1.00  0.00    -0.367 OA
ATOM     34  H   UNL     1     114.557  99.156 118.390  1.00  0.00     0.213 HD
ENDBRANCH   4  33
BRANCH  13  35
ATOM     35  O   UNL     1     119.666  94.798 121.409  1.00  0.00    -0.385 OA
ATOM     36  H   UNL     1     120.321  94.055 121.424  1.00  0.00     0.211 HD
ENDBRANCH  13  35
TORSDOF 3
ENDMDL
MODEL 7
REMARK VINA RESULT:      -7.1      1.717      9.120
REMARK SMILES CC1=C(C)C(=O)O[C@@H]([C@]2(C)O[C@@H](O)[C@]34CC[C@H]5[C@@H](CC=C6[C@@H](O)C=CC(=O)[C@@]65C)[C@@H]3CC[C@H]24)C1
REMARK SMILES IDX 9 1 10 2 11 3 12 4 14 5 15 6 16 7 17 8 18 9 19 10 20 11
REMARK SMILES IDX 21 12 22 13 24 14 25 15 26 16 27 17 28 18 29 19 30 20 31 21
REMARK SMILES IDX 32 22 33 23 8 24 2 25 3 26 34 27 5 28 6 29 7 30 1 31 4 32
REMARK SMILES IDX 13 33 23 35
REMARK H PARENT 13 34 23 36
ROOT
ATOM      1  C   UNL     1     103.604  93.116 115.270  1.00  0.00     0.109 C 
ATOM      2  C   UNL     1     103.386  91.614 114.972  1.00  0.00     0.047 C 
ATOM      3  O   UNL     1     102.342  93.653 115.613  1.00  0.00    -0.342 OA
ATOM      4  C   UNL     1     102.473  94.313 116.849  1.00  0.00     0.254 C 
ATOM      5  C   UNL     1     103.595  93.605 117.655  1.00  0.00     0.030 C 
ATOM      6  C   UNL     1     103.085  92.417 118.513  1.00  0.00     0.013 C 
ATOM      7  C   UNL     1     102.340  92.879 119.797  1.00  0.00     0.006 C 
ATOM      8  C   UNL     1     103.025  94.049 120.601  1.00  0.00     0.011 C 
ATOM      9  C   UNL     1     103.582  95.160 119.656  1.00  0.00     0.001 C 
ATOM     10  C   UNL     1     104.430  96.149 120.462  1.00  0.00     0.031 C 
ATOM     11  C   UNL     1     103.716  96.654 121.675  1.00  0.00    -0.023 C 
ATOM     12  C   UNL     1     102.773  95.949 122.336  1.00  0.00    -0.028 C 
ATOM     13  C   UNL     1     102.257  96.529 123.644  1.00  0.00     0.164 C 
ATOM     14  C   UNL     1     101.725  95.480 124.586  1.00  0.00     0.012 C 
ATOM     15  C   UNL     1     101.616  94.192 124.261  1.00  0.00     0.047 C 
ATOM     16  C   UNL     1     101.948  93.702 122.915  1.00  0.00     0.165 C 
ATOM     17  O   UNL     1     101.990  92.457 122.737  1.00  0.00    -0.294 OA
ATOM     18  C   UNL     1     102.129  94.675 121.754  1.00  0.00     0.057 C 
ATOM     19  C   UNL     1     100.718  95.055 121.237  1.00  0.00     0.025 C 
ATOM     20  C   UNL     1     104.440  94.487 118.571  1.00  0.00     0.004 C 
ATOM     21  C   UNL     1     105.289  95.333 117.645  1.00  0.00     0.005 C 
ATOM     22  C   UNL     1     105.647  94.344 116.535  1.00  0.00     0.008 C 
ATOM     23  C   UNL     1     104.545  93.237 116.522  1.00  0.00     0.036 C 
ENDROOT
BRANCH   1  24
ATOM     24  C   UNL     1     104.086  93.779 113.935  1.00  0.00     0.213 C 
ATOM     25  C   UNL     1     104.844  95.888 112.737  1.00  0.00    -0.059 C 
ATOM     26  C   UNL     1     105.761  95.166 112.047  1.00  0.00     0.033 C 
ATOM     27  C   UNL     1     104.188  95.324 113.981  1.00  0.00     0.079 C 
ATOM     28  C   UNL     1     106.081  93.794 112.499  1.00  0.00     0.334 C 
ATOM     29  O   UNL     1     107.064  93.168 112.022  1.00  0.00    -0.247 OA
ATOM     30  O   UNL     1     105.305  93.190 113.486  1.00  0.00    -0.456 OA
ATOM     31  C   UNL     1     104.522  97.313 112.359  1.00  0.00     0.040 C 
ATOM     32  C   UNL     1     106.491  95.747 110.858  1.00  0.00     0.052 C 
ENDBRANCH   1  24
BRANCH   4  33
ATOM     33  O   UNL     1     101.237  94.308 117.507  1.00  0.00    -0.367 OA
ATOM     34  H   UNL     1     101.343  93.906 118.405  1.00  0.00     0.213 HD
ENDBRANCH   4  33
BRANCH  13  35
ATOM     35  O   UNL     1     101.259  97.478 123.372  1.00  0.00    -0.385 OA
ATOM     36  H   UNL     1     101.666  98.271 122.941  1.00  0.00     0.211 HD
ENDBRANCH  13  35
TORSDOF 3
ENDMDL
MODEL 8
REMARK VINA RESULT:      -7.1      8.489     11.153
REMARK SMILES CC1=C(C)C(=O)O[C@@H]([C@]2(C)O[C@@H](O)[C@]34CC[C@H]5[C@@H](CC=C6[C@@H](O)C=CC(=O)[C@@]65C)[C@@H]3CC[C@H]24)C1
REMARK SMILES IDX 9 1 10 2 11 3 12 4 14 5 15 6 16 7 17 8 18 9 19 10 20 11
REMARK SMILES IDX 21 12 22 13 24 14 25 15 26 16 27 17 28 18 29 19 30 20 31 21
REMARK SMILES IDX 32 22 33 23 8 24 2 25 3 26 34 27 5 28 6 29 7 30 1 31 4 32
REMARK SMILES IDX 13 33 23 35
REMARK H PARENT 13 34 23 36
ROOT
ATOM      1  C   UNL     1     108.943 101.969 121.089  1.00  0.00     0.109 C 
ATOM      2  C   UNL     1     109.580 103.303 120.636  1.00  0.00     0.047 C 
ATOM      3  O   UNL     1     109.517 100.950 120.295  1.00  0.00    -0.342 OA
ATOM      4  C   UNL     1     110.025  99.960 121.158  1.00  0.00     0.254 C 
ATOM      5  C   UNL     1     110.438 100.649 122.486  1.00  0.00     0.030 C 
ATOM      6  C   UNL     1     111.896 101.180 122.480  1.00  0.00     0.013 C 
ATOM      7  C   UNL     1     112.949 100.048 122.643  1.00  0.00     0.006 C 
ATOM      8  C   UNL     1     112.628  98.968 123.745  1.00  0.00     0.011 C 
ATOM      9  C   UNL     1     111.123  98.552 123.734  1.00  0.00     0.001 C 
ATOM     10  C   UNL     1     110.816  97.683 124.958  1.00  0.00     0.031 C 
ATOM     11  C   UNL     1     111.781  96.551 125.107  1.00  0.00    -0.023 C 
ATOM     12  C   UNL     1     113.057  96.593 124.669  1.00  0.00    -0.028 C 
ATOM     13  C   UNL     1     113.962  95.426 125.040  1.00  0.00     0.164 C 
ATOM     14  C   UNL     1     115.422  95.799 125.074  1.00  0.00     0.012 C 
ATOM     15  C   UNL     1     115.880  96.995 124.707  1.00  0.00     0.047 C 
ATOM     16  C   UNL     1     114.990  98.036 124.171  1.00  0.00     0.165 C 
ATOM     17  O   UNL     1     115.464  99.192 124.017  1.00  0.00    -0.294 OA
ATOM     18  C   UNL     1     113.573  97.692 123.720  1.00  0.00     0.057 C 
ATOM     19  C   UNL     1     113.670  97.081 122.299  1.00  0.00     0.025 C 
ATOM     20  C   UNL     1     110.267  99.830 123.763  1.00  0.00     0.004 C 
ATOM     21  C   UNL     1     108.771  99.735 123.983  1.00  0.00     0.005 C 
ATOM     22  C   UNL     1     108.290 101.125 123.569  1.00  0.00     0.008 C 
ATOM     23  C   UNL     1     109.352 101.713 122.585  1.00  0.00     0.036 C 
ENDROOT
BRANCH   1  24
ATOM     24  C   UNL     1     107.414 102.060 120.763  1.00  0.00     0.213 C 
ATOM     25  C   UNL     1     105.480 103.472 119.911  1.00  0.00    -0.059 C 
ATOM     26  C   UNL     1     104.975 102.392 119.267  1.00  0.00     0.033 C 
ATOM     27  C   UNL     1     106.913 103.482 120.407  1.00  0.00     0.079 C 
ATOM     28  C   UNL     1     105.829 101.195 119.094  1.00  0.00     0.334 C 
ATOM     29  O   UNL     1     105.481 100.256 118.332  1.00  0.00    -0.247 OA
ATOM     30  O   UNL     1     107.050 101.113 119.761  1.00  0.00    -0.456 OA
ATOM     31  C   UNL     1     104.678 104.741 120.064  1.00  0.00     0.040 C 
ATOM     32  C   UNL     1     103.579 102.399 118.688  1.00  0.00     0.052 C 
ENDBRANCH   1  24
BRANCH   4  33
ATOM     33  O   UNL     1     111.086  99.301 120.528  1.00  0.00    -0.367 OA
ATOM     34  H   UNL     1     111.696  99.968 120.125  1.00  0.00     0.213 HD
ENDBRANCH   4  33
BRANCH  13  35
ATOM     35  O   UNL     1     113.758  94.373 124.137  1.00  0.00    -0.385 OA
ATOM     36  H   UNL     1     112.808  94.093 124.164  1.00  0.00     0.211 HD
ENDBRANCH  13  35
TORSDOF 3
ENDMDL
MODEL 9
REMARK VINA RESULT:      -6.9     19.180     25.374
REMARK SMILES CC1=C(C)C(=O)O[C@@H]([C@]2(C)O[C@@H](O)[C@]34CC[C@H]5[C@@H](CC=C6[C@@H](O)C=CC(=O)[C@@]65C)[C@@H]3CC[C@H]24)C1
REMARK SMILES IDX 9 1 10 2 11 3 12 4 14 5 15 6 16 7 17 8 18 9 19 10 20 11
REMARK SMILES IDX 21 12 22 13 24 14 25 15 26 16 27 17 28 18 29 19 30 20 31 21
REMARK SMILES IDX 32 22 33 23 8 24 2 25 3 26 34 27 5 28 6 29 7 30 1 31 4 32
REMARK SMILES IDX 13 33 23 35
REMARK H PARENT 13 34 23 36
ROOT
ATOM      1  C   UNL     1     124.531  85.057 104.275  1.00  0.00     0.109 C 
ATOM      2  C   UNL     1     125.185  86.347 103.731  1.00  0.00     0.047 C 
ATOM      3  O   UNL     1     125.168  84.760 105.501  1.00  0.00    -0.342 OA
ATOM      4  C   UNL     1     124.169  84.604 106.482  1.00  0.00     0.254 C 
ATOM      5  C   UNL     1     122.963  85.497 106.085  1.00  0.00     0.030 C 
ATOM      6  C   UNL     1     123.062  86.946 106.630  1.00  0.00     0.013 C 
ATOM      7  C   UNL     1     122.739  87.041 108.148  1.00  0.00     0.006 C 
ATOM      8  C   UNL     1     121.484  86.221 108.633  1.00  0.00     0.011 C 
ATOM      9  C   UNL     1     121.420  84.807 107.973  1.00  0.00     0.001 C 
ATOM     10  C   UNL     1     120.076  84.145 108.296  1.00  0.00     0.031 C 
ATOM     11  C   UNL     1     119.766  84.172 109.759  1.00  0.00    -0.023 C 
ATOM     12  C   UNL     1     120.216  85.126 110.601  1.00  0.00    -0.028 C 
ATOM     13  C   UNL     1     119.681  85.108 112.026  1.00  0.00     0.164 C 
ATOM     14  C   UNL     1     119.716  86.462 112.687  1.00  0.00     0.012 C 
ATOM     15  C   UNL     1     120.263  87.538 112.122  1.00  0.00     0.047 C 
ATOM     16  C   UNL     1     120.942  87.469 110.820  1.00  0.00     0.165 C 
ATOM     17  O   UNL     1     121.273  88.553 110.272  1.00  0.00    -0.294 OA
ATOM     18  C   UNL     1     121.324  86.123 110.210  1.00  0.00     0.057 C 
ATOM     19  C   UNL     1     122.638  85.659 110.889  1.00  0.00     0.025 C 
ATOM     20  C   UNL     1     121.576  84.975 106.453  1.00  0.00     0.004 C 
ATOM     21  C   UNL     1     121.332  83.798 105.531  1.00  0.00     0.005 C 
ATOM     22  C   UNL     1     121.947  84.277 104.216  1.00  0.00     0.008 C 
ATOM     23  C   UNL     1     123.017  85.360 104.569  1.00  0.00     0.036 C 
ENDROOT
BRANCH   1  24
ATOM     24  C   UNL     1     124.854  83.916 103.251  1.00  0.00     0.213 C 
ATOM     25  C   UNL     1     124.818  81.430 102.723  1.00  0.00    -0.059 C 
ATOM     26  C   UNL     1     124.475  81.708 101.441  1.00  0.00     0.033 C 
ATOM     27  C   UNL     1     124.684  82.481 103.808  1.00  0.00     0.079 C 
ATOM     28  C   UNL     1     124.010  83.072 101.103  1.00  0.00     0.334 C 
ATOM     29  O   UNL     1     123.490  83.319  99.983  1.00  0.00    -0.247 OA
ATOM     30  O   UNL     1     124.122  84.096 102.041  1.00  0.00    -0.456 OA
ATOM     31  C   UNL     1     125.240  80.043 103.140  1.00  0.00     0.040 C 
ATOM     32  C   UNL     1     124.517  80.648 100.366  1.00  0.00     0.052 C 
ENDBRANCH   1  24
BRANCH   4  33
ATOM     33  O   UNL     1     124.702  84.925 107.736  1.00  0.00    -0.367 OA
ATOM     34  H   UNL     1     124.546  85.884 107.925  1.00  0.00     0.213 HD
ENDBRANCH   4  33
BRANCH  13  35
ATOM     35  O   UNL     1     120.414  84.184 112.787  1.00  0.00    -0.385 OA
ATOM     36  H   UNL     1     120.455  83.319 112.307  1.00  0.00     0.211 HD
ENDBRANCH  13  35
TORSDOF 3
ENDMDL
MODEL 10
REMARK VINA RESULT:      -6.9      8.078     11.082
REMARK SMILES CC1=C(C)C(=O)O[C@@H]([C@]2(C)O[C@@H](O)[C@]34CC[C@H]5[C@@H](CC=C6[C@@H](O)C=CC(=O)[C@@]65C)[C@@H]3CC[C@H]24)C1
REMARK SMILES IDX 9 1 10 2 11 3 12 4 14 5 15 6 16 7 17 8 18 9 19 10 20 11
REMARK SMILES IDX 21 12 22 13 24 14 25 15 26 16 27 17 28 18 29 19 30 20 31 21
REMARK SMILES IDX 32 22 33 23 8 24 2 25 3 26 34 27 5 28 6 29 7 30 1 31 4 32
REMARK SMILES IDX 13 33 23 35
REMARK H PARENT 13 34 23 36
ROOT
ATOM      1  C   UNL     1     112.316  97.052 123.103  1.00  0.00     0.109 C 
ATOM      2  C   UNL     1     112.153  96.395 124.493  1.00  0.00     0.047 C 
ATOM      3  O   UNL     1     111.331  96.484 122.264  1.00  0.00    -0.342 OA
ATOM      4  C   UNL     1     110.601  97.536 121.677  1.00  0.00     0.254 C 
ATOM      5  C   UNL     1     110.613  98.735 122.663  1.00  0.00     0.030 C 
ATOM      6  C   UNL     1     109.451  98.702 123.690  1.00  0.00     0.013 C 
ATOM      7  C   UNL     1     108.088  99.118 123.070  1.00  0.00     0.006 C 
ATOM      8  C   UNL     1     108.121 100.382 122.128  1.00  0.00     0.011 C 
ATOM      9  C   UNL     1     109.366 100.374 121.185  1.00  0.00     0.001 C 
ATOM     10  C   UNL     1     109.475 101.720 120.461  1.00  0.00     0.031 C 
ATOM     11  C   UNL     1     108.191 102.118 119.805  1.00  0.00    -0.023 C 
ATOM     12  C   UNL     1     106.975 101.741 120.253  1.00  0.00    -0.028 C 
ATOM     13  C   UNL     1     105.760 102.361 119.577  1.00  0.00     0.164 C 
ATOM     14  C   UNL     1     104.544 102.397 120.467  1.00  0.00     0.012 C 
ATOM     15  C   UNL     1     104.507 101.841 121.678  1.00  0.00     0.047 C 
ATOM     16  C   UNL     1     105.645 101.083 122.219  1.00  0.00     0.165 C 
ATOM     17  O   UNL     1     105.603 100.744 123.430  1.00  0.00    -0.294 OA
ATOM     18  C   UNL     1     106.785 100.634 121.308  1.00  0.00     0.057 C 
ATOM     19  C   UNL     1     106.317  99.354 120.570  1.00  0.00     0.025 C 
ATOM     20  C   UNL     1     110.620 100.130 122.041  1.00  0.00     0.004 C 
ATOM     21  C   UNL     1     111.997 100.292 121.431  1.00  0.00     0.005 C 
ATOM     22  C   UNL     1     112.896  99.609 122.462  1.00  0.00     0.008 C 
ATOM     23  C   UNL     1     112.012  98.587 123.247  1.00  0.00     0.036 C 
ENDROOT
BRANCH   1  24
ATOM     24  C   UNL     1     113.729  96.641 122.568  1.00  0.00     0.213 C 
ATOM     25  C   UNL     1     116.173  96.180 123.092  1.00  0.00    -0.059 C 
ATOM     26  C   UNL     1     116.167  95.148 122.213  1.00  0.00     0.033 C 
ATOM     27  C   UNL     1     114.875  96.775 123.602  1.00  0.00     0.079 C 
ATOM     28  C   UNL     1     114.869  94.636 121.718  1.00  0.00     0.334 C 
ATOM     29  O   UNL     1     114.803  93.558 121.070  1.00  0.00    -0.247 OA
ATOM     30  O   UNL     1     113.696  95.337 121.992  1.00  0.00    -0.456 OA
ATOM     31  C   UNL     1     117.461  96.704 123.678  1.00  0.00     0.040 C 
ATOM     32  C   UNL     1     117.448  94.485 121.765  1.00  0.00     0.052 C 
ENDBRANCH   1  24
BRANCH   4  33
ATOM     33  O   UNL     1     109.311  97.087 121.373  1.00  0.00    -0.367 OA
ATOM     34  H   UNL     1     109.180  97.099 120.392  1.00  0.00     0.213 HD
ENDBRANCH   4  33
BRANCH  13  35
ATOM     35  O   UNL     1     105.471 101.655 118.400  1.00  0.00    -0.385 OA
ATOM     36  H   UNL     1     105.096 102.276 117.725  1.00  0.00     0.211 HD
ENDBRANCH  13  35
TORSDOF 3
ENDMDL
MODEL 11
REMARK VINA RESULT:      -6.9     10.171     13.507
REMARK SMILES CC1=C(C)C(=O)O[C@@H]([C@]2(C)O[C@@H](O)[C@]34CC[C@H]5[C@@H](CC=C6[C@@H](O)C=CC(=O)[C@@]65C)[C@@H]3CC[C@H]24)C1
REMARK SMILES IDX 9 1 10 2 11 3 12 4 14 5 15 6 16 7 17 8 18 9 19 10 20 11
REMARK SMILES IDX 21 12 22 13 24 14 25 15 26 16 27 17 28 18 29 19 30 20 31 21
REMARK SMILES IDX 32 22 33 23 8 24 2 25 3 26 34 27 5 28 6 29 7 30 1 31 4 32
REMARK SMILES IDX 13 33 23 35
REMARK H PARENT 13 34 23 36
ROOT
ATOM      1  C   UNL     1     115.835  96.768 123.209  1.00  0.00     0.109 C 
ATOM      2  C   UNL     1     116.002  95.747 124.359  1.00  0.00     0.047 C 
ATOM      3  O   UNL     1     114.885  96.226 122.315  1.00  0.00    -0.342 OA
ATOM      4  C   UNL     1     113.881  97.193 122.111  1.00  0.00     0.254 C 
ATOM      5  C   UNL     1     113.778  98.056 123.397  1.00  0.00     0.030 C 
ATOM      6  C   UNL     1     112.798  97.478 124.452  1.00  0.00     0.013 C 
ATOM      7  C   UNL     1     111.307  97.709 124.078  1.00  0.00     0.006 C 
ATOM      8  C   UNL     1     110.950  99.147 123.540  1.00  0.00     0.011 C 
ATOM      9  C   UNL     1     112.030  99.684 122.549  1.00  0.00     0.001 C 
ATOM     10  C   UNL     1     111.760 101.160 122.237  1.00  0.00     0.031 C 
ATOM     11  C   UNL     1     110.345 101.402 121.819  1.00  0.00    -0.023 C 
ATOM     12  C   UNL     1     109.305 100.643 122.225  1.00  0.00    -0.028 C 
ATOM     13  C   UNL     1     107.908 101.114 121.846  1.00  0.00     0.164 C 
ATOM     14  C   UNL     1     106.843 100.625 122.793  1.00  0.00     0.012 C 
ATOM     15  C   UNL     1     107.086  99.776 123.791  1.00  0.00     0.047 C 
ATOM     16  C   UNL     1     108.418  99.193 124.007  1.00  0.00     0.165 C 
ATOM     17  O   UNL     1     108.612  98.546 125.069  1.00  0.00    -0.294 OA
ATOM     18  C   UNL     1     109.492  99.285 122.927  1.00  0.00     0.057 C 
ATOM     19  C   UNL     1     109.204  98.173 121.886  1.00  0.00     0.025 C 
ATOM     20  C   UNL     1     113.412  99.526 123.206  1.00  0.00     0.004 C 
ATOM     21  C   UNL     1     114.630 100.164 122.570  1.00  0.00     0.005 C 
ATOM     22  C   UNL     1     115.782  99.465 123.294  1.00  0.00     0.008 C 
ATOM     23  C   UNL     1     115.243  98.093 123.812  1.00  0.00     0.036 C 
ENDROOT
BRANCH   1  24
ATOM     24  C   UNL     1     117.218  96.860 122.479  1.00  0.00     0.213 C 
ATOM     25  C   UNL     1     119.234  95.634 121.535  1.00  0.00    -0.059 C 
ATOM     26  C   UNL     1     119.261  96.488 120.483  1.00  0.00     0.033 C 
ATOM     27  C   UNL     1     118.008  95.529 122.420  1.00  0.00     0.079 C 
ATOM     28  C   UNL     1     118.088  97.356 120.234  1.00  0.00     0.334 C 
ATOM     29  O   UNL     1     117.981  98.008 119.161  1.00  0.00    -0.247 OA
ATOM     30  O   UNL     1     117.070  97.436 121.182  1.00  0.00    -0.456 OA
ATOM     31  C   UNL     1     120.374  94.683 121.803  1.00  0.00     0.040 C 
ATOM     32  C   UNL     1     120.439  96.541 119.538  1.00  0.00     0.052 C 
ENDBRANCH   1  24
BRANCH   4  33
ATOM     33  O   UNL     1     112.682  96.549 121.783  1.00  0.00    -0.367 OA
ATOM     34  H   UNL     1     112.861  95.832 121.125  1.00  0.00     0.213 HD
ENDBRANCH   4  33
BRANCH  13  35
ATOM     35  O   UNL     1     107.614 100.698 120.539  1.00  0.00    -0.385 OA
ATOM     36  H   UNL     1     108.422 100.296 120.130  1.00  0.00     0.211 HD
ENDBRANCH  13  35
TORSDOF 3
ENDMDL
MODEL 12
REMARK VINA RESULT:      -6.8     12.577     14.076
REMARK SMILES CC1=C(C)C(=O)O[C@@H]([C@]2(C)O[C@@H](O)[C@]34CC[C@H]5[C@@H](CC=C6[C@@H](O)C=CC(=O)[C@@]65C)[C@@H]3CC[C@H]24)C1
REMARK SMILES IDX 9 1 10 2 11 3 12 4 14 5 15 6 16 7 17 8 18 9 19 10 20 11
REMARK SMILES IDX 21 12 22 13 24 14 25 15 26 16 27 17 28 18 29 19 30 20 31 21
REMARK SMILES IDX 32 22 33 23 8 24 2 25 3 26 34 27 5 28 6 29 7 30 1 31 4 32
REMARK SMILES IDX 13 33 23 35
REMARK H PARENT 13 34 23 36
ROOT
ATOM      1  C   UNL     1     114.019 101.929 121.608  1.00  0.00     0.109 C 
ATOM      2  C   UNL     1     113.929 102.905 120.412  1.00  0.00     0.047 C 
ATOM      3  O   UNL     1     113.822 100.628 121.091  1.00  0.00    -0.342 OA
ATOM      4  C   UNL     1     114.898  99.825 121.516  1.00  0.00     0.254 C 
ATOM      5  C   UNL     1     116.141 100.739 121.685  1.00  0.00     0.030 C 
ATOM      6  C   UNL     1     116.971 100.900 120.383  1.00  0.00     0.013 C 
ATOM      7  C   UNL     1     117.832  99.647 120.061  1.00  0.00     0.006 C 
ATOM      8  C   UNL     1     118.604  99.015 121.280  1.00  0.00     0.011 C 
ATOM      9  C   UNL     1     117.723  98.967 122.568  1.00  0.00     0.001 C 
ATOM     10  C   UNL     1     118.583  98.562 123.770  1.00  0.00     0.031 C 
ATOM     11  C   UNL     1     119.381  97.325 123.507  1.00  0.00    -0.023 C 
ATOM     12  C   UNL     1     119.800  96.952 122.279  1.00  0.00    -0.028 C 
ATOM     13  C   UNL     1     120.740  95.759 122.195  1.00  0.00     0.164 C 
ATOM     14  C   UNL     1     121.616  95.783 120.969  1.00  0.00     0.012 C 
ATOM     15  C   UNL     1     121.500  96.694 120.004  1.00  0.00     0.047 C 
ATOM     16  C   UNL     1     120.448  97.722 120.031  1.00  0.00     0.165 C 
ATOM     17  O   UNL     1     120.513  98.651 119.184  1.00  0.00    -0.294 OA
ATOM     18  C   UNL     1     119.265  97.601 120.987  1.00  0.00     0.057 C 
ATOM     19  C   UNL     1     118.249  96.617 120.352  1.00  0.00     0.025 C 
ATOM     20  C   UNL     1     117.120 100.364 122.795  1.00  0.00     0.004 C 
ATOM     21  C   UNL     1     116.400 100.677 124.090  1.00  0.00     0.005 C 
ATOM     22  C   UNL     1     115.661 101.972 123.750  1.00  0.00     0.008 C 
ATOM     23  C   UNL     1     115.472 102.008 122.199  1.00  0.00     0.036 C 
ENDROOT
BRANCH   1  24
ATOM     24  C   UNL     1     112.829 102.274 122.567  1.00  0.00     0.213 C 
ATOM     25  C   UNL     1     110.829 103.763 123.059  1.00  0.00    -0.059 C 
ATOM     26  C   UNL     1     110.140 102.687 123.513  1.00  0.00     0.033 C 
ATOM     27  C   UNL     1     112.082 103.587 122.224  1.00  0.00     0.079 C 
ATOM     28  C   UNL     1     110.656 101.330 123.223  1.00  0.00     0.334 C 
ATOM     29  O   UNL     1     109.951 100.310 123.442  1.00  0.00    -0.247 OA
ATOM     30  O   UNL     1     111.927 101.174 122.675  1.00  0.00    -0.456 OA
ATOM     31  C   UNL     1     110.320 105.167 123.271  1.00  0.00     0.040 C 
ATOM     32  C   UNL     1     108.841 102.844 124.269  1.00  0.00     0.052 C 
ENDBRANCH   1  24
BRANCH   4  33
ATOM     33  O   UNL     1     115.095  98.793 120.592  1.00  0.00    -0.367 OA
ATOM     34  H   UNL     1     115.506  99.161 119.769  1.00  0.00     0.213 HD
ENDBRANCH   4  33
BRANCH  13  35
ATOM     35  O   UNL     1     119.991  94.573 122.225  1.00  0.00    -0.385 OA
ATOM     36  H   UNL     1     120.298  94.006 122.977  1.00  0.00     0.211 HD
ENDBRANCH  13  35
TORSDOF 3
ENDMDL
MODEL 13
REMARK VINA RESULT:      -6.8      8.396     11.201
REMARK SMILES CC1=C(C)C(=O)O[C@@H]([C@]2(C)O[C@@H](O)[C@]34CC[C@H]5[C@@H](CC=C6[C@@H](O)C=CC(=O)[C@@]65C)[C@@H]3CC[C@H]24)C1
REMARK SMILES IDX 9 1 10 2 11 3 12 4 14 5 15 6 16 7 17 8 18 9 19 10 20 11
REMARK SMILES IDX 21 12 22 13 24 14 25 15 26 16 27 17 28 18 29 19 30 20 31 21
REMARK SMILES IDX 32 22 33 23 8 24 2 25 3 26 34 27 5 28 6 29 7 30 1 31 4 32
REMARK SMILES IDX 13 33 23 35
REMARK H PARENT 13 34 23 36
ROOT
ATOM      1  C   UNL     1     111.415  98.023 123.696  1.00  0.00     0.109 C 
ATOM      2  C   UNL     1     111.090  97.482 125.107  1.00  0.00     0.047 C 
ATOM      3  O   UNL     1     110.373  97.595 122.843  1.00  0.00    -0.342 OA
ATOM      4  C   UNL     1     109.865  98.726 122.176  1.00  0.00     0.254 C 
ATOM      5  C   UNL     1     110.060  99.957 123.102  1.00  0.00     0.030 C 
ATOM      6  C   UNL     1     108.877 100.188 124.079  1.00  0.00     0.013 C 
ATOM      7  C   UNL     1     107.633 100.806 123.381  1.00  0.00     0.006 C 
ATOM      8  C   UNL     1     107.926 101.989 122.382  1.00  0.00     0.011 C 
ATOM      9  C   UNL     1     109.180 101.708 121.496  1.00  0.00     0.001 C 
ATOM     10  C   UNL     1     109.555 102.971 120.713  1.00  0.00     0.031 C 
ATOM     11  C   UNL     1     108.387 103.556 119.985  1.00  0.00    -0.023 C 
ATOM     12  C   UNL     1     107.107 103.426 120.397  1.00  0.00    -0.028 C 
ATOM     13  C   UNL     1     106.048 104.215 119.641  1.00  0.00     0.164 C 
ATOM     14  C   UNL     1     104.829 104.516 120.475  1.00  0.00     0.012 C 
ATOM     15  C   UNL     1     104.651 104.043 121.708  1.00  0.00     0.047 C 
ATOM     16  C   UNL     1     105.615 103.125 122.333  1.00  0.00     0.165 C 
ATOM     17  O   UNL     1     105.471 102.866 123.556  1.00  0.00    -0.294 OA
ATOM     18  C   UNL     1     106.686 102.431 121.495  1.00  0.00     0.057 C 
ATOM     19  C   UNL     1     106.020 101.216 120.799  1.00  0.00     0.025 C 
ATOM     20  C   UNL     1     110.340 101.291 122.416  1.00  0.00     0.004 C 
ATOM     21  C   UNL     1     111.743 101.171 121.858  1.00  0.00     0.005 C 
ATOM     22  C   UNL     1     112.468 100.396 122.959  1.00  0.00     0.008 C 
ATOM     23  C   UNL     1     111.389  99.593 123.753  1.00  0.00     0.036 C 
ENDROOT
BRANCH   1  24
ATOM     24  C   UNL     1     112.749  97.338 123.243  1.00  0.00     0.213 C 
ATOM     25  C   UNL     1     114.898  96.163 123.920  1.00  0.00    -0.059 C 
ATOM     26  C   UNL     1     114.771  95.321 122.866  1.00  0.00     0.033 C 
ATOM     27  C   UNL     1     113.724  96.997 124.396  1.00  0.00     0.079 C 
ATOM     28  C   UNL     1     113.476  95.260 122.150  1.00  0.00     0.334 C 
ATOM     29  O   UNL     1     113.246  94.354 121.305  1.00  0.00    -0.247 OA
ATOM     30  O   UNL     1     112.484  96.197 122.429  1.00  0.00    -0.456 OA
ATOM     31  C   UNL     1     116.172  96.225 124.726  1.00  0.00     0.040 C 
ATOM     32  C   UNL     1     115.903  94.418 122.435  1.00  0.00     0.052 C 
ENDBRANCH   1  24
BRANCH   4  33
ATOM     33  O   UNL     1     108.526  98.499 121.838  1.00  0.00    -0.367 OA
ATOM     34  H   UNL     1     108.159  97.779 122.410  1.00  0.00     0.213 HD
ENDBRANCH   4  33
BRANCH  13  35
ATOM     35  O   UNL     1     105.676 103.509 118.487  1.00  0.00    -0.385 OA
ATOM     36  H   UNL     1     105.559 104.142 117.735  1.00  0.00     0.211 HD
ENDBRANCH  13  35
TORSDOF 3
ENDMDL
MODEL 14
REMARK VINA RESULT:      -6.8      3.849      5.711
REMARK SMILES CC1=C(C)C(=O)O[C@@H]([C@]2(C)O[C@@H](O)[C@]34CC[C@H]5[C@@H](CC=C6[C@@H](O)C=CC(=O)[C@@]65C)[C@@H]3CC[C@H]24)C1
REMARK SMILES IDX 9 1 10 2 11 3 12 4 14 5 15 6 16 7 17 8 18 9 19 10 20 11
REMARK SMILES IDX 21 12 22 13 24 14 25 15 26 16 27 17 28 18 29 19 30 20 31 21
REMARK SMILES IDX 32 22 33 23 8 24 2 25 3 26 34 27 5 28 6 29 7 30 1 31 4 32
REMARK SMILES IDX 13 33 23 35
REMARK H PARENT 13 34 23 36
ROOT
ATOM      1  C   UNL     1     104.203  99.259 121.064  1.00  0.00     0.109 C 
ATOM      2  C   UNL     1     103.516  98.779 122.364  1.00  0.00     0.047 C 
ATOM      3  O   UNL     1     105.492  98.680 121.044  1.00  0.00    -0.342 OA
ATOM      4  C   UNL     1     105.650  98.015 119.813  1.00  0.00     0.254 C 
ATOM      5  C   UNL     1     104.249  97.538 119.343  1.00  0.00     0.030 C 
ATOM      6  C   UNL     1     103.861  96.135 119.881  1.00  0.00     0.013 C 
ATOM      7  C   UNL     1     104.594  94.983 119.139  1.00  0.00     0.006 C 
ATOM      8  C   UNL     1     104.658  95.111 117.569  1.00  0.00     0.011 C 
ATOM      9  C   UNL     1     104.973  96.571 117.115  1.00  0.00     0.001 C 
ATOM     10  C   UNL     1     104.798  96.690 115.597  1.00  0.00     0.031 C 
ATOM     11  C   UNL     1     105.541  95.626 114.854  1.00  0.00    -0.023 C 
ATOM     12  C   UNL     1     105.804  94.404 115.364  1.00  0.00    -0.028 C 
ATOM     13  C   UNL     1     106.423  93.376 114.427  1.00  0.00     0.164 C 
ATOM     14  C   UNL     1     106.125  91.955 114.830  1.00  0.00     0.012 C 
ATOM     15  C   UNL     1     105.482  91.632 115.952  1.00  0.00     0.047 C 
ATOM     16  C   UNL     1     105.068  92.650 116.929  1.00  0.00     0.165 C 
ATOM     17  O   UNL     1     104.313  92.289 117.869  1.00  0.00    -0.294 OA
ATOM     18  C   UNL     1     105.623  94.070 116.857  1.00  0.00     0.057 C 
ATOM     19  C   UNL     1     107.029  94.055 117.510  1.00  0.00     0.025 C 
ATOM     20  C   UNL     1     104.003  97.522 117.836  1.00  0.00     0.004 C 
ATOM     21  C   UNL     1     103.925  98.978 117.426  1.00  0.00     0.005 C 
ATOM     22  C   UNL     1     103.169  99.609 118.596  1.00  0.00     0.008 C 
ATOM     23  C   UNL     1     103.392  98.694 119.843  1.00  0.00     0.036 C 
ENDROOT
BRANCH   1  24
ATOM     24  C   UNL     1     104.352 100.814 121.176  1.00  0.00     0.213 C 
ATOM     25  C   UNL     1     105.431 102.938 120.290  1.00  0.00    -0.059 C 
ATOM     26  C   UNL     1     104.265 103.606 120.469  1.00  0.00     0.033 C 
ATOM     27  C   UNL     1     105.467 101.422 120.290  1.00  0.00     0.079 C 
ATOM     28  C   UNL     1     103.027 102.832 120.713  1.00  0.00     0.334 C 
ATOM     29  O   UNL     1     101.898 103.391 120.680  1.00  0.00    -0.247 OA
ATOM     30  O   UNL     1     103.100 101.462 120.957  1.00  0.00    -0.456 OA
ATOM     31  C   UNL     1     106.714 103.668 119.978  1.00  0.00     0.040 C 
ATOM     32  C   UNL     1     104.197 105.112 120.383  1.00  0.00     0.052 C 
ENDBRANCH   1  24
BRANCH   4  33
ATOM     33  O   UNL     1     106.563  96.966 119.971  1.00  0.00    -0.367 OA
ATOM     34  H   UNL     1     107.247  97.014 119.257  1.00  0.00     0.213 HD
ENDBRANCH   4  33
BRANCH  13  35
ATOM     35  O   UNL     1     107.810  93.576 114.367  1.00  0.00    -0.385 OA
ATOM     36  H   UNL     1     108.271  92.699 114.374  1.00  0.00     0.211 HD
ENDBRANCH  13  35
TORSDOF 3
ENDMDL
MODEL 15
REMARK VINA RESULT:      -6.7      4.234      5.883
REMARK SMILES CC1=C(C)C(=O)O[C@@H]([C@]2(C)O[C@@H](O)[C@]34CC[C@H]5[C@@H](CC=C6[C@@H](O)C=CC(=O)[C@@]65C)[C@@H]3CC[C@H]24)C1
REMARK SMILES IDX 9 1 10 2 11 3 12 4 14 5 15 6 16 7 17 8 18 9 19 10 20 11
REMARK SMILES IDX 21 12 22 13 24 14 25 15 26 16 27 17 28 18 29 19 30 20 31 21
REMARK SMILES IDX 32 22 33 23 8 24 2 25 3 26 34 27 5 28 6 29 7 30 1 31 4 32
REMARK SMILES IDX 13 33 23 35
REMARK H PARENT 13 34 23 36
ROOT
ATOM      1  C   UNL     1     104.795  99.268 121.472  1.00  0.00     0.109 C 
ATOM      2  C   UNL     1     104.131  98.787 122.783  1.00  0.00     0.047 C 
ATOM      3  O   UNL     1     106.044  98.612 121.381  1.00  0.00    -0.342 OA
ATOM      4  C   UNL     1     106.111  97.981 120.124  1.00  0.00     0.254 C 
ATOM      5  C   UNL     1     104.666  97.607 119.696  1.00  0.00     0.030 C 
ATOM      6  C   UNL     1     104.212  96.214 120.205  1.00  0.00     0.013 C 
ATOM      7  C   UNL     1     104.842  95.045 119.397  1.00  0.00     0.006 C 
ATOM      8  C   UNL     1     104.853  95.222 117.831  1.00  0.00     0.011 C 
ATOM      9  C   UNL     1     105.241  96.675 117.410  1.00  0.00     0.001 C 
ATOM     10  C   UNL     1     105.015  96.857 115.906  1.00  0.00     0.031 C 
ATOM     11  C   UNL     1     105.659  95.775 115.100  1.00  0.00    -0.023 C 
ATOM     12  C   UNL     1     105.865  94.522 115.559  1.00  0.00    -0.028 C 
ATOM     13  C   UNL     1     106.382  93.491 114.565  1.00  0.00     0.164 C 
ATOM     14  C   UNL     1     106.011  92.078 114.935  1.00  0.00     0.012 C 
ATOM     15  C   UNL     1     105.393  91.757 116.071  1.00  0.00     0.047 C 
ATOM     16  C   UNL     1     105.081  92.764 117.096  1.00  0.00     0.165 C 
ATOM     17  O   UNL     1     104.343  92.419 118.054  1.00  0.00    -0.294 OA
ATOM     18  C   UNL     1     105.722  94.149 117.047  1.00  0.00     0.057 C 
ATOM     19  C   UNL     1     107.148  94.025 117.641  1.00  0.00     0.025 C 
ATOM     20  C   UNL     1     104.361  97.659 118.201  1.00  0.00     0.004 C 
ATOM     21  C   UNL     1     104.359  99.130 117.841  1.00  0.00     0.005 C 
ATOM     22  C   UNL     1     103.690  99.765 119.060  1.00  0.00     0.008 C 
ATOM     23  C   UNL     1     103.904  98.796 120.267  1.00  0.00     0.036 C 
ENDROOT
BRANCH   1  24
ATOM     24  C   UNL     1     105.046 100.806 121.627  1.00  0.00     0.213 C 
ATOM     25  C   UNL     1     105.543 102.756 123.181  1.00  0.00    -0.059 C 
ATOM     26  C   UNL     1     106.366 103.291 122.246  1.00  0.00     0.033 C 
ATOM     27  C   UNL     1     105.103 101.307 123.092  1.00  0.00     0.079 C 
ATOM     28  C   UNL     1     106.796 102.452 121.104  1.00  0.00     0.334 C 
ATOM     29  O   UNL     1     107.714 102.833 120.331  1.00  0.00    -0.247 OA
ATOM     30  O   UNL     1     106.200 101.210 120.892  1.00  0.00    -0.456 OA
ATOM     31  C   UNL     1     105.120 103.542 124.397  1.00  0.00     0.040 C 
ATOM     32  C   UNL     1     106.885 104.704 122.368  1.00  0.00     0.052 C 
ENDBRANCH   1  24
BRANCH   4  33
ATOM     33  O   UNL     1     106.962  96.873 120.210  1.00  0.00    -0.367 OA
ATOM     34  H   UNL     1     107.222  96.584 119.300  1.00  0.00     0.213 HD
ENDBRANCH   4  33
BRANCH  13  35
ATOM     35  O   UNL     1     107.775  93.607 114.455  1.00  0.00    -0.385 OA
ATOM     36  H   UNL     1     108.060  93.328 113.549  1.00  0.00     0.211 HD
ENDBRANCH  13  35
TORSDOF 3
ENDMDL
