MODEL 1
REMARK VINA RESULT:     -11.1      0.000      0.000
REMARK SMILES O=C(O)c1nc2ccccc2n([C@@H]2C[C@H]3CCC[C@@H](C2)N3[C@H]2C[C@@H]3CCC[C@@H](C3)C2)c1=O
REMARK SMILES IDX 4 1 5 2 6 3 7 4 8 5 9 6 10 7 11 8 12 9 31 10 32 11 2 12 1 13
REMARK SMILES IDX 3 14 13 16 14 17 20 18 15 19 19 20 16 21 21 22 18 23 17 24
REMARK SMILES IDX 22 25 30 26 23 27 28 28 24 29 27 30 29 31 25 32 26 33
REMARK H PARENT 3 15
ROOT
ATOM      1  C   UNL     1     108.445 112.350  74.789  1.00  0.00     0.214 A 
ATOM      2  N   UNL     1     107.136 112.276  75.124  1.00  0.00    -0.234 NA
ATOM      3  C   UNL     1     106.733 112.187  76.410  1.00  0.00     0.088 A 
ATOM      4  C   UNL     1     105.369 112.042  76.687  1.00  0.00     0.030 A 
ATOM      5  C   UNL     1     104.935 111.858  77.997  1.00  0.00     0.002 A 
ATOM      6  C   UNL     1     105.864 111.789  79.033  1.00  0.00     0.002 A 
ATOM      7  C   UNL     1     107.227 111.944  78.772  1.00  0.00     0.028 A 
ATOM      8  C   UNL     1     107.693 112.204  77.454  1.00  0.00     0.070 A 
ATOM      9  N   UNL     1     109.028 112.426  77.143  1.00  0.00    -0.301 N 
ATOM     10  C   UNL     1     109.411 112.385  75.814  1.00  0.00     0.284 A 
ATOM     11  O   UNL     1     110.634 112.361  75.500  1.00  0.00    -0.267 OA
ENDROOT
BRANCH   1  12
ATOM     12  C   UNL     1     108.798 112.387  73.351  1.00  0.00     0.360 C 
ATOM     13  O   UNL     1     108.332 113.303  72.620  1.00  0.00    -0.244 OA
BRANCH  12  14
ATOM     14  O   UNL     1     109.640 111.431  72.790  1.00  0.00    -0.476 OA
ATOM     15  H   UNL     1     109.341 110.491  72.715  1.00  0.00     0.297 HD
ENDBRANCH  12  14
ENDBRANCH   1  12
BRANCH   9  16
ATOM     16  C   UNL     1     110.040 112.717  78.206  1.00  0.00     0.094 C 
ATOM     17  C   UNL     1     110.577 114.170  78.150  1.00  0.00     0.044 C 
ATOM     18  C   UNL     1     111.153 111.648  78.221  1.00  0.00     0.044 C 
ATOM     19  C   UNL     1     111.840 114.390  79.013  1.00  0.00     0.059 C 
ATOM     20  C   UNL     1     112.388 112.041  79.062  1.00  0.00     0.059 C 
ATOM     21  C   UNL     1     111.563 114.440  80.536  1.00  0.00     0.019 C 
ATOM     22  N   UNL     1     112.876 113.387  78.659  1.00  0.00    -0.294 NA
ATOM     23  C   UNL     1     112.165 111.933  80.590  1.00  0.00     0.019 C 
ATOM     24  C   UNL     1     111.326 113.071  81.193  1.00  0.00     0.003 C 
BRANCH  22  25
ATOM     25  C   UNL     1     114.265 113.722  79.135  1.00  0.00     0.057 C 
ATOM     26  C   UNL     1     114.677 115.156  78.672  1.00  0.00     0.022 C 
ATOM     27  C   UNL     1     115.293 112.652  78.645  1.00  0.00     0.022 C 
ATOM     28  C   UNL     1     116.190 115.469  78.678  1.00  0.00    -0.009 C 
ATOM     29  C   UNL     1     116.779 113.076  78.654  1.00  0.00    -0.009 C 
ATOM     30  C   UNL     1     116.788 115.659  80.091  1.00  0.00     0.004 C 
ATOM     31  C   UNL     1     116.955 114.396  77.915  1.00  0.00     0.007 C 
ATOM     32  C   UNL     1     117.401 113.157  80.067  1.00  0.00     0.004 C 
ATOM     33  C   UNL     1     116.921 114.357  80.903  1.00  0.00     0.001 C 
ENDBRANCH  22  25
ENDBRANCH   9  16
TORSDOF 4
ENDMDL
MODEL 2
REMARK VINA RESULT:     -10.8      1.909      3.114
REMARK SMILES O=C(O)c1nc2ccccc2n([C@@H]2C[C@H]3CCC[C@@H](C2)N3[C@H]2C[C@@H]3CCC[C@@H](C3)C2)c1=O
REMARK SMILES IDX 4 1 5 2 6 3 7 4 8 5 9 6 10 7 11 8 12 9 31 10 32 11 2 12 1 13
REMARK SMILES IDX 3 14 13 16 14 17 20 18 15 19 19 20 16 21 21 22 18 23 17 24
REMARK SMILES IDX 22 25 30 26 23 27 28 28 24 29 27 30 29 31 25 32 26 33
REMARK H PARENT 3 15
ROOT
ATOM      1  C   UNL     1     106.737 111.431  76.688  1.00  0.00     0.214 A 
ATOM      2  N   UNL     1     107.148 111.124  75.436  1.00  0.00    -0.234 NA
ATOM      3  C   UNL     1     108.409 111.369  75.019  1.00  0.00     0.088 A 
ATOM      4  C   UNL     1     108.752 111.093  73.691  1.00  0.00     0.030 A 
ATOM      5  C   UNL     1     110.018 111.420  73.211  1.00  0.00     0.002 A 
ATOM      6  C   UNL     1     110.937 112.049  74.048  1.00  0.00     0.002 A 
ATOM      7  C   UNL     1     110.611 112.319  75.379  1.00  0.00     0.028 A 
ATOM      8  C   UNL     1     109.352 111.933  75.915  1.00  0.00     0.070 A 
ATOM      9  N   UNL     1     108.995 112.121  77.244  1.00  0.00    -0.301 N 
ATOM     10  C   UNL     1     107.665 111.977  77.597  1.00  0.00     0.284 A 
ATOM     11  O   UNL     1     107.260 112.348  78.733  1.00  0.00    -0.267 OA
ENDROOT
BRANCH   1  12
ATOM     12  C   UNL     1     105.321 111.180  77.041  1.00  0.00     0.360 C 
ATOM     13  O   UNL     1     104.912 109.993  77.162  1.00  0.00    -0.244 OA
BRANCH  12  14
ATOM     14  O   UNL     1     104.431 112.230  77.247  1.00  0.00    -0.476 OA
ATOM     15  H   UNL     1     103.912 112.596  76.488  1.00  0.00     0.297 HD
ENDBRANCH  12  14
ENDBRANCH   1  12
BRANCH   9  16
ATOM     16  C   UNL     1     110.015 112.458  78.287  1.00  0.00     0.094 C 
ATOM     17  C   UNL     1     110.505 113.926  78.204  1.00  0.00     0.044 C 
ATOM     18  C   UNL     1     111.161 111.425  78.299  1.00  0.00     0.044 C 
ATOM     19  C   UNL     1     111.773 114.197  79.043  1.00  0.00     0.059 C 
ATOM     20  C   UNL     1     112.396 111.867  79.115  1.00  0.00     0.059 C 
ATOM     21  C   UNL     1     111.519 114.259  80.571  1.00  0.00     0.019 C 
ATOM     22  N   UNL     1     112.835 113.222  78.686  1.00  0.00    -0.294 NA
ATOM     23  C   UNL     1     112.200 111.773  80.648  1.00  0.00     0.019 C 
ATOM     24  C   UNL     1     111.335 112.892  81.249  1.00  0.00     0.003 C 
BRANCH  22  25
ATOM     25  C   UNL     1     114.219 113.606  79.135  1.00  0.00     0.057 C 
ATOM     26  C   UNL     1     114.552 115.072  78.710  1.00  0.00     0.022 C 
ATOM     27  C   UNL     1     115.281 112.602  78.582  1.00  0.00     0.022 C 
ATOM     28  C   UNL     1     116.049 115.456  78.686  1.00  0.00    -0.009 C 
ATOM     29  C   UNL     1     116.746 113.095  78.566  1.00  0.00    -0.009 C 
ATOM     30  C   UNL     1     116.677 115.628  80.088  1.00  0.00     0.004 C 
ATOM     31  C   UNL     1     116.840 114.445  77.867  1.00  0.00     0.007 C 
ATOM     32  C   UNL     1     117.404 113.159  79.963  1.00  0.00     0.004 C 
ATOM     33  C   UNL     1     116.893 114.308  80.852  1.00  0.00     0.001 C 
ENDBRANCH  22  25
ENDBRANCH   9  16
TORSDOF 4
ENDMDL
MODEL 3
REMARK VINA RESULT:      -9.6      2.642      8.455
REMARK SMILES O=C(O)c1nc2ccccc2n([C@@H]2C[C@H]3CCC[C@@H](C2)N3[C@H]2C[C@@H]3CCC[C@@H](C3)C2)c1=O
REMARK SMILES IDX 4 1 5 2 6 3 7 4 8 5 9 6 10 7 11 8 12 9 31 10 32 11 2 12 1 13
REMARK SMILES IDX 3 14 13 16 14 17 20 18 15 19 19 20 16 21 21 22 18 23 17 24
REMARK SMILES IDX 22 25 30 26 23 27 28 28 24 29 27 30 29 31 25 32 26 33
REMARK H PARENT 3 15
ROOT
ATOM      1  C   UNL     1     117.190 112.428  78.032  1.00  0.00     0.214 A 
ATOM      2  N   UNL     1     118.053 112.943  78.938  1.00  0.00    -0.234 NA
ATOM      3  C   UNL     1     117.642 113.762  79.931  1.00  0.00     0.088 A 
ATOM      4  C   UNL     1     118.594 114.318  80.792  1.00  0.00     0.030 A 
ATOM      5  C   UNL     1     118.208 115.235  81.766  1.00  0.00     0.002 A 
ATOM      6  C   UNL     1     116.873 115.622  81.865  1.00  0.00     0.002 A 
ATOM      7  C   UNL     1     115.911 115.065  81.019  1.00  0.00     0.028 A 
ATOM      8  C   UNL     1     116.266 114.075  80.063  1.00  0.00     0.070 A 
ATOM      9  N   UNL     1     115.345 113.443  79.237  1.00  0.00    -0.301 N 
ATOM     10  C   UNL     1     115.816 112.714  78.159  1.00  0.00     0.284 A 
ATOM     11  O   UNL     1     115.024 112.310  77.263  1.00  0.00    -0.267 OA
ENDROOT
BRANCH   1  12
ATOM     12  C   UNL     1     117.738 111.585  76.945  1.00  0.00     0.360 C 
ATOM     13  O   UNL     1     118.858 111.027  77.095  1.00  0.00    -0.244 OA
BRANCH  12  14
ATOM     14  O   UNL     1     117.035 111.392  75.759  1.00  0.00    -0.476 OA
ATOM     15  H   UNL     1     117.486 111.531  74.888  1.00  0.00     0.297 HD
ENDBRANCH  12  14
ENDBRANCH   1  12
BRANCH   9  16
ATOM     16  C   UNL     1     113.873 113.526  79.499  1.00  0.00     0.094 C 
ATOM     17  C   UNL     1     113.218 112.139  79.720  1.00  0.00     0.044 C 
ATOM     18  C   UNL     1     113.165 114.379  78.426  1.00  0.00     0.044 C 
ATOM     19  C   UNL     1     111.674 112.175  79.665  1.00  0.00     0.059 C 
ATOM     20  C   UNL     1     111.625 114.254  78.441  1.00  0.00     0.059 C 
ATOM     21  C   UNL     1     111.012 112.804  80.917  1.00  0.00     0.019 C 
ATOM     22  N   UNL     1     111.227 112.822  78.404  1.00  0.00    -0.294 NA
ATOM     23  C   UNL     1     110.946 115.021  79.601  1.00  0.00     0.019 C 
ATOM     24  C   UNL     1     111.069 114.339  80.973  1.00  0.00     0.003 C 
BRANCH  22  25
ATOM     25  C   UNL     1     109.785 112.578  78.049  1.00  0.00     0.057 C 
ATOM     26  C   UNL     1     109.485 111.046  77.973  1.00  0.00     0.022 C 
ATOM     27  C   UNL     1     109.413 113.294  76.712  1.00  0.00     0.022 C 
ATOM     28  C   UNL     1     108.215 110.635  77.194  1.00  0.00    -0.009 C 
ATOM     29  C   UNL     1     108.145 112.785  75.991  1.00  0.00    -0.009 C 
ATOM     30  C   UNL     1     106.895 110.944  77.937  1.00  0.00     0.004 C 
ATOM     31  C   UNL     1     108.212 111.274  75.812  1.00  0.00     0.007 C 
ATOM     32  C   UNL     1     106.823 113.192  76.680  1.00  0.00     0.004 C 
ATOM     33  C   UNL     1     106.535 112.440  77.993  1.00  0.00     0.001 C 
ENDBRANCH  22  25
ENDBRANCH   9  16
TORSDOF 4
ENDMDL
MODEL 4
REMARK VINA RESULT:      -9.4      2.414      3.625
REMARK SMILES O=C(O)c1nc2ccccc2n([C@@H]2C[C@H]3CCC[C@@H](C2)N3[C@H]2C[C@@H]3CCC[C@@H](C3)C2)c1=O
REMARK SMILES IDX 4 1 5 2 6 3 7 4 8 5 9 6 10 7 11 8 12 9 31 10 32 11 2 12 1 13
REMARK SMILES IDX 3 14 13 16 14 17 20 18 15 19 19 20 16 21 21 22 18 23 17 24
REMARK SMILES IDX 22 25 30 26 23 27 28 28 24 29 27 30 29 31 25 32 26 33
REMARK H PARENT 3 15
ROOT
ATOM      1  C   UNL     1     105.783 111.172  77.744  1.00  0.00     0.214 A 
ATOM      2  N   UNL     1     105.948 110.724  76.478  1.00  0.00    -0.234 NA
ATOM      3  C   UNL     1     107.075 110.970  75.775  1.00  0.00     0.088 A 
ATOM      4  C   UNL     1     107.155 110.540  74.446  1.00  0.00     0.030 A 
ATOM      5  C   UNL     1     108.268 110.860  73.671  1.00  0.00     0.002 A 
ATOM      6  C   UNL     1     109.291 111.634  74.213  1.00  0.00     0.002 A 
ATOM      7  C   UNL     1     109.229 112.059  75.542  1.00  0.00     0.028 A 
ATOM      8  C   UNL     1     108.139 111.689  76.376  1.00  0.00     0.070 A 
ATOM      9  N   UNL     1     108.052 112.031  77.720  1.00  0.00    -0.301 N 
ATOM     10  C   UNL     1     106.837 111.872  78.363  1.00  0.00     0.284 A 
ATOM     11  O   UNL     1     106.650 112.369  79.509  1.00  0.00    -0.267 OA
ENDROOT
BRANCH   1  12
ATOM     12  C   UNL     1     104.493 110.903  78.418  1.00  0.00     0.360 C 
ATOM     13  O   UNL     1     103.524 110.451  77.750  1.00  0.00    -0.244 OA
BRANCH  12  14
ATOM     14  O   UNL     1     104.328 111.135  79.781  1.00  0.00    -0.476 OA
ATOM     15  H   UNL     1     105.114 111.342  80.346  1.00  0.00     0.297 HD
ENDBRANCH  12  14
ENDBRANCH   1  12
BRANCH   9  16
ATOM     16  C   UNL     1     109.238 112.547  78.474  1.00  0.00     0.094 C 
ATOM     17  C   UNL     1     109.765 113.897  77.925  1.00  0.00     0.044 C 
ATOM     18  C   UNL     1     110.329 111.464  78.601  1.00  0.00     0.044 C 
ATOM     19  C   UNL     1     111.161 114.276  78.467  1.00  0.00     0.059 C 
ATOM     20  C   UNL     1     111.696 112.004  79.079  1.00  0.00     0.059 C 
ATOM     21  C   UNL     1     111.157 114.757  79.940  1.00  0.00     0.019 C 
ATOM     22  N   UNL     1     112.113 113.158  78.240  1.00  0.00    -0.294 NA
ATOM     23  C   UNL     1     111.744 112.332  80.592  1.00  0.00     0.019 C 
ATOM     24  C   UNL     1     111.031 113.635  80.984  1.00  0.00     0.003 C 
BRANCH  22  25
ATOM     25  C   UNL     1     113.565 113.535  78.364  1.00  0.00     0.057 C 
ATOM     26  C   UNL     1     114.300 112.584  79.362  1.00  0.00     0.022 C 
ATOM     27  C   UNL     1     113.717 115.030  78.791  1.00  0.00     0.022 C 
ATOM     28  C   UNL     1     115.639 113.098  79.938  1.00  0.00    -0.009 C 
ATOM     29  C   UNL     1     115.082 115.436  79.390  1.00  0.00    -0.009 C 
ATOM     30  C   UNL     1     116.808 113.080  78.925  1.00  0.00     0.004 C 
ATOM     31  C   UNL     1     115.462 114.492  80.523  1.00  0.00     0.007 C 
ATOM     32  C   UNL     1     116.224 115.524  78.351  1.00  0.00     0.004 C 
ATOM     33  C   UNL     1     116.714 114.160  77.831  1.00  0.00     0.001 C 
ENDBRANCH  22  25
ENDBRANCH   9  16
TORSDOF 4
ENDMDL
MODEL 5
REMARK VINA RESULT:      -8.8      2.806      8.326
REMARK SMILES O=C(O)c1nc2ccccc2n([C@@H]2C[C@H]3CCC[C@@H](C2)N3[C@H]2C[C@@H]3CCC[C@@H](C3)C2)c1=O
REMARK SMILES IDX 4 1 5 2 6 3 7 4 8 5 9 6 10 7 11 8 12 9 31 10 32 11 2 12 1 13
REMARK SMILES IDX 3 14 13 16 14 17 20 18 15 19 19 20 16 21 21 22 18 23 17 24
REMARK SMILES IDX 22 25 30 26 23 27 28 28 24 29 27 30 29 31 25 32 26 33
REMARK H PARENT 3 15
ROOT
ATOM      1  C   UNL     1     115.175 114.785  78.979  1.00  0.00     0.214 A 
ATOM      2  N   UNL     1     115.480 113.580  79.514  1.00  0.00    -0.234 NA
ATOM      3  C   UNL     1     114.526 112.683  79.844  1.00  0.00     0.088 A 
ATOM      4  C   UNL     1     114.902 111.484  80.459  1.00  0.00     0.030 A 
ATOM      5  C   UNL     1     113.932 110.582  80.891  1.00  0.00     0.002 A 
ATOM      6  C   UNL     1     112.582 110.888  80.735  1.00  0.00     0.002 A 
ATOM      7  C   UNL     1     112.193 112.076  80.111  1.00  0.00     0.028 A 
ATOM      8  C   UNL     1     113.161 112.981  79.598  1.00  0.00     0.070 A 
ATOM      9  N   UNL     1     112.835 114.147  78.917  1.00  0.00    -0.301 N 
ATOM     10  C   UNL     1     113.826 115.091  78.712  1.00  0.00     0.284 A 
ATOM     11  O   UNL     1     113.533 116.247  78.299  1.00  0.00    -0.267 OA
ENDROOT
BRANCH   1  12
ATOM     12  C   UNL     1     116.282 115.727  78.701  1.00  0.00     0.360 C 
ATOM     13  O   UNL     1     117.383 115.588  79.301  1.00  0.00    -0.244 OA
BRANCH  12  14
ATOM     14  O   UNL     1     116.135 116.764  77.785  1.00  0.00    -0.476 OA
ATOM     15  H   UNL     1     115.277 116.883  77.305  1.00  0.00     0.297 HD
ENDBRANCH  12  14
ENDBRANCH   1  12
BRANCH   9  16
ATOM     16  C   UNL     1     111.452 114.388  78.397  1.00  0.00     0.094 C 
ATOM     17  C   UNL     1     110.403 114.565  79.524  1.00  0.00     0.044 C 
ATOM     18  C   UNL     1     111.060 113.324  77.350  1.00  0.00     0.044 C 
ATOM     19  C   UNL     1     108.944 114.486  79.021  1.00  0.00     0.059 C 
ATOM     20  C   UNL     1     109.554 113.312  77.003  1.00  0.00     0.059 C 
ATOM     21  C   UNL     1     108.476 115.742  78.244  1.00  0.00     0.019 C 
ATOM     22  N   UNL     1     108.742 113.234  78.246  1.00  0.00    -0.294 NA
ATOM     23  C   UNL     1     109.113 114.479  76.087  1.00  0.00     0.019 C 
ATOM     24  C   UNL     1     108.993 115.836  76.799  1.00  0.00     0.003 C 
BRANCH  22  25
ATOM     25  C   UNL     1     107.302 112.851  78.035  1.00  0.00     0.057 C 
ATOM     26  C   UNL     1     106.974 111.510  78.767  1.00  0.00     0.022 C 
ATOM     27  C   UNL     1     106.969 112.760  76.511  1.00  0.00     0.022 C 
ATOM     28  C   UNL     1     105.710 110.760  78.288  1.00  0.00    -0.009 C 
ATOM     29  C   UNL     1     105.704 111.957  76.134  1.00  0.00    -0.009 C 
ATOM     30  C   UNL     1     104.383 111.423  78.724  1.00  0.00     0.004 C 
ATOM     31  C   UNL     1     105.744 110.578  76.777  1.00  0.00     0.007 C 
ATOM     32  C   UNL     1     104.378 112.676  76.472  1.00  0.00     0.004 C 
ATOM     33  C   UNL     1     104.051 112.728  77.976  1.00  0.00     0.001 C 
ENDBRANCH  22  25
ENDBRANCH   9  16
TORSDOF 4
ENDMDL
MODEL 6
REMARK VINA RESULT:      -8.2      3.642      8.822
REMARK SMILES O=C(O)c1nc2ccccc2n([C@@H]2C[C@H]3CCC[C@@H](C2)N3[C@H]2C[C@@H]3CCC[C@@H](C3)C2)c1=O
REMARK SMILES IDX 4 1 5 2 6 3 7 4 8 5 9 6 10 7 11 8 12 9 31 10 32 11 2 12 1 13
REMARK SMILES IDX 3 14 13 16 14 17 20 18 15 19 19 20 16 21 21 22 18 23 17 24
REMARK SMILES IDX 22 25 30 26 23 27 28 28 24 29 27 30 29 31 25 32 26 33
REMARK H PARENT 3 15
ROOT
ATOM      1  C   UNL     1     117.325 114.783  80.817  1.00  0.00     0.214 A 
ATOM      2  N   UNL     1     117.975 114.164  79.805  1.00  0.00    -0.234 NA
ATOM      3  C   UNL     1     117.315 113.475  78.848  1.00  0.00     0.088 A 
ATOM      4  C   UNL     1     118.050 112.799  77.868  1.00  0.00     0.030 A 
ATOM      5  C   UNL     1     117.399 112.008  76.925  1.00  0.00     0.002 A 
ATOM      6  C   UNL     1     116.014 111.866  76.975  1.00  0.00     0.002 A 
ATOM      7  C   UNL     1     115.267 112.546  77.941  1.00  0.00     0.028 A 
ATOM      8  C   UNL     1     115.899 113.415  78.872  1.00  0.00     0.070 A 
ATOM      9  N   UNL     1     115.205 114.162  79.815  1.00  0.00    -0.301 N 
ATOM     10  C   UNL     1     115.917 114.748  80.847  1.00  0.00     0.284 A 
ATOM     11  O   UNL     1     115.315 115.245  81.839  1.00  0.00    -0.267 OA
ENDROOT
BRANCH   1  12
ATOM     12  C   UNL     1     118.133 115.467  81.852  1.00  0.00     0.360 C 
ATOM     13  O   UNL     1     119.252 114.990  82.184  1.00  0.00    -0.244 OA
BRANCH  12  14
ATOM     14  O   UNL     1     117.683 116.634  82.465  1.00  0.00    -0.476 OA
ATOM     15  H   UNL     1     118.286 117.415  82.544  1.00  0.00     0.297 HD
ENDBRANCH  12  14
ENDBRANCH   1  12
BRANCH   9  16
ATOM     16  C   UNL     1     113.722 114.351  79.726  1.00  0.00     0.094 C 
ATOM     17  C   UNL     1     112.923 113.144  80.278  1.00  0.00     0.044 C 
ATOM     18  C   UNL     1     113.301 114.771  78.302  1.00  0.00     0.044 C 
ATOM     19  C   UNL     1     111.425 113.176  79.901  1.00  0.00     0.059 C 
ATOM     20  C   UNL     1     111.780 114.678  78.045  1.00  0.00     0.059 C 
ATOM     21  C   UNL     1     110.597 114.221  80.691  1.00  0.00     0.019 C 
ATOM     22  N   UNL     1     111.276 113.333  78.431  1.00  0.00    -0.294 NA
ATOM     23  C   UNL     1     110.964 115.819  78.700  1.00  0.00     0.019 C 
ATOM     24  C   UNL     1     110.771 115.673  80.218  1.00  0.00     0.003 C 
BRANCH  22  25
ATOM     25  C   UNL     1     109.910 112.995  77.898  1.00  0.00     0.057 C 
ATOM     26  C   UNL     1     109.198 111.954  78.820  1.00  0.00     0.022 C 
ATOM     27  C   UNL     1     110.001 112.478  76.426  1.00  0.00     0.022 C 
ATOM     28  C   UNL     1     108.018 111.177  78.192  1.00  0.00    -0.009 C 
ATOM     29  C   UNL     1     108.785 111.680  75.904  1.00  0.00    -0.009 C 
ATOM     30  C   UNL     1     106.736 112.021  78.008  1.00  0.00     0.004 C 
ATOM     31  C   UNL     1     108.441 110.553  76.869  1.00  0.00     0.007 C 
ATOM     32  C   UNL     1     107.539 112.548  75.617  1.00  0.00     0.004 C 
ATOM     33  C   UNL     1     106.821 113.064  76.878  1.00  0.00     0.001 C 
ENDBRANCH  22  25
ENDBRANCH   9  16
TORSDOF 4
ENDMDL
MODEL 7
REMARK VINA RESULT:      -7.8      3.488      8.670
REMARK SMILES O=C(O)c1nc2ccccc2n([C@@H]2C[C@H]3CCC[C@@H](C2)N3[C@H]2C[C@@H]3CCC[C@@H](C3)C2)c1=O
REMARK SMILES IDX 4 1 5 2 6 3 7 4 8 5 9 6 10 7 11 8 12 9 31 10 32 11 2 12 1 13
REMARK SMILES IDX 3 14 13 16 14 17 20 18 15 19 19 20 16 21 21 22 18 23 17 24
REMARK SMILES IDX 22 25 30 26 23 27 28 28 24 29 27 30 29 31 25 32 26 33
REMARK H PARENT 3 15
ROOT
ATOM      1  C   UNL     1     117.652 114.288  80.162  1.00  0.00     0.214 A 
ATOM      2  N   UNL     1     117.664 115.491  79.544  1.00  0.00    -0.234 NA
ATOM      3  C   UNL     1     116.581 115.972  78.896  1.00  0.00     0.088 A 
ATOM      4  C   UNL     1     116.680 117.192  78.217  1.00  0.00     0.030 A 
ATOM      5  C   UNL     1     115.607 117.666  77.467  1.00  0.00     0.002 A 
ATOM      6  C   UNL     1     114.440 116.911  77.370  1.00  0.00     0.002 A 
ATOM      7  C   UNL     1     114.324 115.697  78.053  1.00  0.00     0.028 A 
ATOM      8  C   UNL     1     115.377 115.223  78.882  1.00  0.00     0.070 A 
ATOM      9  N   UNL     1     115.296 114.057  79.631  1.00  0.00    -0.301 N 
ATOM     10  C   UNL     1     116.459 113.538  80.173  1.00  0.00     0.284 A 
ATOM     11  O   UNL     1     116.472 112.377  80.668  1.00  0.00    -0.267 OA
ENDROOT
BRANCH   1  12
ATOM     12  C   UNL     1     118.902 113.815  80.799  1.00  0.00     0.360 C 
ATOM     13  O   UNL     1     119.447 114.516  81.695  1.00  0.00    -0.244 OA
BRANCH  12  14
ATOM     14  O   UNL     1     119.487 112.607  80.431  1.00  0.00    -0.476 OA
ATOM     15  H   UNL     1     119.341 112.242  79.522  1.00  0.00     0.297 HD
ENDBRANCH  12  14
ENDBRANCH   1  12
BRANCH   9  16
ATOM     16  C   UNL     1     113.987 113.370  79.870  1.00  0.00     0.094 C 
ATOM     17  C   UNL     1     113.750 112.169  78.919  1.00  0.00     0.044 C 
ATOM     18  C   UNL     1     112.823 114.383  79.886  1.00  0.00     0.044 C 
ATOM     19  C   UNL     1     112.291 111.661  78.926  1.00  0.00     0.059 C 
ATOM     20  C   UNL     1     111.424 113.732  79.809  1.00  0.00     0.059 C 
ATOM     21  C   UNL     1     111.906 110.864  80.198  1.00  0.00     0.019 C 
ATOM     22  N   UNL     1     111.360 112.788  78.662  1.00  0.00    -0.294 NA
ATOM     23  C   UNL     1     110.965 113.076  81.134  1.00  0.00     0.019 C 
ATOM     24  C   UNL     1     111.635 111.727  81.441  1.00  0.00     0.003 C 
BRANCH  22  25
ATOM     25  C   UNL     1     109.969 112.375  78.263  1.00  0.00     0.057 C 
ATOM     26  C   UNL     1     110.013 111.360  77.076  1.00  0.00     0.022 C 
ATOM     27  C   UNL     1     109.099 113.624  77.907  1.00  0.00     0.022 C 
ATOM     28  C   UNL     1     108.706 111.196  76.267  1.00  0.00    -0.009 C 
ATOM     29  C   UNL     1     107.833 113.358  77.064  1.00  0.00    -0.009 C 
ATOM     30  C   UNL     1     107.600 110.411  77.011  1.00  0.00     0.004 C 
ATOM     31  C   UNL     1     108.187 112.555  75.819  1.00  0.00     0.007 C 
ATOM     32  C   UNL     1     106.689 112.672  77.845  1.00  0.00     0.004 C 
ATOM     33  C   UNL     1     106.941 111.188  78.166  1.00  0.00     0.001 C 
ENDBRANCH  22  25
ENDBRANCH   9  16
TORSDOF 4
ENDMDL
MODEL 8
REMARK VINA RESULT:      -7.8      1.932      2.869
REMARK SMILES O=C(O)c1nc2ccccc2n([C@@H]2C[C@H]3CCC[C@@H](C2)N3[C@H]2C[C@@H]3CCC[C@@H](C3)C2)c1=O
REMARK SMILES IDX 4 1 5 2 6 3 7 4 8 5 9 6 10 7 11 8 12 9 31 10 32 11 2 12 1 13
REMARK SMILES IDX 3 14 13 16 14 17 20 18 15 19 19 20 16 21 21 22 18 23 17 24
REMARK SMILES IDX 22 25 30 26 23 27 28 28 24 29 27 30 29 31 25 32 26 33
REMARK H PARENT 3 15
ROOT
ATOM      1  C   UNL     1     108.538 111.893  75.644  1.00  0.00     0.214 A 
ATOM      2  N   UNL     1     108.486 113.077  74.991  1.00  0.00    -0.234 NA
ATOM      3  C   UNL     1     109.136 114.171  75.443  1.00  0.00     0.088 A 
ATOM      4  C   UNL     1     108.985 115.383  74.761  1.00  0.00     0.030 A 
ATOM      5  C   UNL     1     109.571 116.545  75.257  1.00  0.00     0.002 A 
ATOM      6  C   UNL     1     110.287 116.505  76.452  1.00  0.00     0.002 A 
ATOM      7  C   UNL     1     110.456 115.299  77.136  1.00  0.00     0.028 A 
ATOM      8  C   UNL     1     109.928 114.086  76.616  1.00  0.00     0.070 A 
ATOM      9  N   UNL     1     110.115 112.849  77.220  1.00  0.00    -0.301 N 
ATOM     10  C   UNL     1     109.334 111.786  76.801  1.00  0.00     0.284 A 
ATOM     11  O   UNL     1     109.310 110.710  77.461  1.00  0.00    -0.267 OA
ENDROOT
BRANCH   1  12
ATOM     12  C   UNL     1     107.748 110.762  75.106  1.00  0.00     0.360 C 
ATOM     13  O   UNL     1     107.765 110.525  73.867  1.00  0.00    -0.244 OA
BRANCH  12  14
ATOM     14  O   UNL     1     106.988 109.950  75.943  1.00  0.00    -0.476 OA
ATOM     15  H   UNL     1     107.403 109.164  76.380  1.00  0.00     0.297 HD
ENDBRANCH  12  14
ENDBRANCH   1  12
BRANCH   9  16
ATOM     16  C   UNL     1     111.141 112.648  78.291  1.00  0.00     0.094 C 
ATOM     17  C   UNL     1     111.441 113.940  79.093  1.00  0.00     0.044 C 
ATOM     18  C   UNL     1     112.404 111.964  77.728  1.00  0.00     0.044 C 
ATOM     19  C   UNL     1     112.712 113.837  79.967  1.00  0.00     0.059 C 
ATOM     20  C   UNL     1     113.619 112.008  78.682  1.00  0.00     0.059 C 
ATOM     21  C   UNL     1     112.537 112.965  81.236  1.00  0.00     0.019 C 
ATOM     22  N   UNL     1     113.864 113.402  79.136  1.00  0.00    -0.294 NA
ATOM     23  C   UNL     1     113.522 111.014  79.865  1.00  0.00     0.019 C 
ATOM     24  C   UNL     1     112.561 111.448  80.983  1.00  0.00     0.003 C 
BRANCH  22  25
ATOM     25  C   UNL     1     115.213 113.633  79.762  1.00  0.00     0.057 C 
ATOM     26  C   UNL     1     115.354 115.114  80.242  1.00  0.00     0.022 C 
ATOM     27  C   UNL     1     116.358 113.248  78.772  1.00  0.00     0.022 C 
ATOM     28  C   UNL     1     116.794 115.623  80.478  1.00  0.00    -0.009 C 
ATOM     29  C   UNL     1     117.754 113.837  79.075  1.00  0.00    -0.009 C 
ATOM     30  C   UNL     1     117.460 115.055  81.754  1.00  0.00     0.004 C 
ATOM     31  C   UNL     1     117.660 115.346  79.257  1.00  0.00     0.007 C 
ATOM     32  C   UNL     1     118.461 113.188  80.287  1.00  0.00     0.004 C 
ATOM     33  C   UNL     1     117.861 113.571  81.652  1.00  0.00     0.001 C 
ENDBRANCH  22  25
ENDBRANCH   9  16
TORSDOF 4
ENDMDL
MODEL 9
REMARK VINA RESULT:      -7.8      2.602      8.084
REMARK SMILES O=C(O)c1nc2ccccc2n([C@@H]2C[C@H]3CCC[C@@H](C2)N3[C@H]2C[C@@H]3CCC[C@@H](C3)C2)c1=O
REMARK SMILES IDX 4 1 5 2 6 3 7 4 8 5 9 6 10 7 11 8 12 9 31 10 32 11 2 12 1 13
REMARK SMILES IDX 3 14 13 16 14 17 20 18 15 19 19 20 16 21 21 22 18 23 17 24
REMARK SMILES IDX 22 25 30 26 23 27 28 28 24 29 27 30 29 31 25 32 26 33
REMARK H PARENT 3 15
ROOT
ATOM      1  C   UNL     1     113.980 114.205  79.107  1.00  0.00     0.214 A 
ATOM      2  N   UNL     1     114.430 113.158  79.835  1.00  0.00    -0.234 NA
ATOM      3  C   UNL     1     113.671 112.063  80.057  1.00  0.00     0.088 A 
ATOM      4  C   UNL     1     114.169 111.045  80.878  1.00  0.00     0.030 A 
ATOM      5  C   UNL     1     113.372 109.948  81.195  1.00  0.00     0.002 A 
ATOM      6  C   UNL     1     112.066 109.877  80.717  1.00  0.00     0.002 A 
ATOM      7  C   UNL     1     111.561 110.881  79.886  1.00  0.00     0.028 A 
ATOM      8  C   UNL     1     112.375 111.976  79.489  1.00  0.00     0.070 A 
ATOM      9  N   UNL     1     111.949 112.971  78.619  1.00  0.00    -0.301 N 
ATOM     10  C   UNL     1     112.700 114.129  78.520  1.00  0.00     0.284 A 
ATOM     11  O   UNL     1     112.244 115.140  77.919  1.00  0.00    -0.267 OA
ENDROOT
BRANCH   1  12
ATOM     12  C   UNL     1     114.859 115.388  78.963  1.00  0.00     0.360 C 
ATOM     13  O   UNL     1     115.790 115.575  79.793  1.00  0.00    -0.244 OA
BRANCH  12  14
ATOM     14  O   UNL     1     114.681 116.297  77.924  1.00  0.00    -0.476 OA
ATOM     15  H   UNL     1     113.960 116.157  77.261  1.00  0.00     0.297 HD
ENDBRANCH  12  14
ENDBRANCH   1  12
BRANCH   9  16
ATOM     16  C   UNL     1     110.714 112.807  77.788  1.00  0.00     0.094 C 
ATOM     17  C   UNL     1     110.713 111.501  76.955  1.00  0.00     0.044 C 
ATOM     18  C   UNL     1     110.436 114.073  76.951  1.00  0.00     0.044 C 
ATOM     19  C   UNL     1     109.622 111.472  75.861  1.00  0.00     0.059 C 
ATOM     20  C   UNL     1     109.377 113.872  75.843  1.00  0.00     0.059 C 
ATOM     21  C   UNL     1     108.188 111.250  76.406  1.00  0.00     0.019 C 
ATOM     22  N   UNL     1     109.722 112.688  75.014  1.00  0.00    -0.294 NA
ATOM     23  C   UNL     1     107.923 113.815  76.371  1.00  0.00     0.019 C 
ATOM     24  C   UNL     1     107.543 112.489  77.048  1.00  0.00     0.003 C 
BRANCH  22  25
ATOM     25  C   UNL     1     108.989 112.602  73.702  1.00  0.00     0.057 C 
ATOM     26  C   UNL     1     109.330 111.269  72.963  1.00  0.00     0.022 C 
ATOM     27  C   UNL     1     109.306 113.843  72.807  1.00  0.00     0.022 C 
ATOM     28  C   UNL     1     109.035 111.231  71.446  1.00  0.00    -0.009 C 
ATOM     29  C   UNL     1     109.010 113.691  71.298  1.00  0.00    -0.009 C 
ATOM     30  C   UNL     1     107.531 111.139  71.100  1.00  0.00     0.004 C 
ATOM     31  C   UNL     1     109.669 112.431  70.755  1.00  0.00     0.007 C 
ATOM     32  C   UNL     1     107.504 113.711  70.947  1.00  0.00     0.004 C 
ATOM     33  C   UNL     1     106.742 112.437  71.354  1.00  0.00     0.001 C 
ENDBRANCH  22  25
ENDBRANCH   9  16
TORSDOF 4
ENDMDL
MODEL 10
REMARK VINA RESULT:      -7.6      2.757      8.447
REMARK SMILES O=C(O)c1nc2ccccc2n([C@@H]2C[C@H]3CCC[C@@H](C2)N3[C@H]2C[C@@H]3CCC[C@@H](C3)C2)c1=O
REMARK SMILES IDX 4 1 5 2 6 3 7 4 8 5 9 6 10 7 11 8 12 9 31 10 32 11 2 12 1 13
REMARK SMILES IDX 3 14 13 16 14 17 20 18 15 19 19 20 16 21 21 22 18 23 17 24
REMARK SMILES IDX 22 25 30 26 23 27 28 28 24 29 27 30 29 31 25 32 26 33
REMARK H PARENT 3 15
ROOT
ATOM      1  C   UNL     1     115.796 116.593  78.116  1.00  0.00     0.214 A 
ATOM      2  N   UNL     1     117.031 116.223  78.525  1.00  0.00    -0.234 NA
ATOM      3  C   UNL     1     117.227 115.149  79.321  1.00  0.00     0.088 A 
ATOM      4  C   UNL     1     118.521 114.860  79.768  1.00  0.00     0.030 A 
ATOM      5  C   UNL     1     118.737 113.814  80.661  1.00  0.00     0.002 A 
ATOM      6  C   UNL     1     117.658 113.070  81.134  1.00  0.00     0.002 A 
ATOM      7  C   UNL     1     116.362 113.341  80.687  1.00  0.00     0.028 A 
ATOM      8  C   UNL     1     116.121 114.357  79.722  1.00  0.00     0.070 A 
ATOM      9  N   UNL     1     114.865 114.631  79.196  1.00  0.00    -0.301 N 
ATOM     10  C   UNL     1     114.688 115.808  78.490  1.00  0.00     0.284 A 
ATOM     11  O   UNL     1     113.529 116.204  78.186  1.00  0.00    -0.267 OA
ENDROOT
BRANCH   1  12
ATOM     12  C   UNL     1     115.671 117.817  77.291  1.00  0.00     0.360 C 
ATOM     13  O   UNL     1     114.578 118.069  76.715  1.00  0.00    -0.244 OA
BRANCH  12  14
ATOM     14  O   UNL     1     116.737 118.700  77.143  1.00  0.00    -0.476 OA
ATOM     15  H   UNL     1     116.726 119.572  77.612  1.00  0.00     0.297 HD
ENDBRANCH  12  14
ENDBRANCH   1  12
BRANCH   9  16
ATOM     16  C   UNL     1     113.721 113.681  79.368  1.00  0.00     0.094 C 
ATOM     17  C   UNL     1     113.562 112.702  78.177  1.00  0.00     0.044 C 
ATOM     18  C   UNL     1     112.423 114.434  79.726  1.00  0.00     0.044 C 
ATOM     19  C   UNL     1     112.214 111.947  78.181  1.00  0.00     0.059 C 
ATOM     20  C   UNL     1     111.146 113.572  79.609  1.00  0.00     0.059 C 
ATOM     21  C   UNL     1     112.120 110.828  79.248  1.00  0.00     0.019 C 
ATOM     22  N   UNL     1     111.091 112.915  78.276  1.00  0.00    -0.294 NA
ATOM     23  C   UNL     1     110.964 112.562  80.768  1.00  0.00     0.019 C 
ATOM     24  C   UNL     1     111.871 111.324  80.682  1.00  0.00     0.003 C 
BRANCH  22  25
ATOM     25  C   UNL     1     109.744 112.355  77.905  1.00  0.00     0.057 C 
ATOM     26  C   UNL     1     109.861 111.407  76.669  1.00  0.00     0.022 C 
ATOM     27  C   UNL     1     108.719 113.504  77.641  1.00  0.00     0.022 C 
ATOM     28  C   UNL     1     108.552 111.122  75.898  1.00  0.00    -0.009 C 
ATOM     29  C   UNL     1     107.460 113.126  76.829  1.00  0.00    -0.009 C 
ATOM     30  C   UNL     1     107.578 110.178  76.640  1.00  0.00     0.004 C 
ATOM     31  C   UNL     1     107.857 112.428  75.536  1.00  0.00     0.007 C 
ATOM     32  C   UNL     1     106.438 112.272  77.614  1.00  0.00     0.004 C 
ATOM     33  C   UNL     1     106.878 110.816  77.854  1.00  0.00     0.001 C 
ENDBRANCH  22  25
ENDBRANCH   9  16
TORSDOF 4
ENDMDL
MODEL 11
REMARK VINA RESULT:      -7.3      3.599      8.125
REMARK SMILES O=C(O)c1nc2ccccc2n([C@@H]2C[C@H]3CCC[C@@H](C2)N3[C@H]2C[C@@H]3CCC[C@@H](C3)C2)c1=O
REMARK SMILES IDX 4 1 5 2 6 3 7 4 8 5 9 6 10 7 11 8 12 9 31 10 32 11 2 12 1 13
REMARK SMILES IDX 3 14 13 16 14 17 20 18 15 19 19 20 16 21 21 22 18 23 17 24
REMARK SMILES IDX 22 25 30 26 23 27 28 28 24 29 27 30 29 31 25 32 26 33
REMARK H PARENT 3 15
ROOT
ATOM      1  C   UNL     1     111.861 111.303  80.231  1.00  0.00     0.214 A 
ATOM      2  N   UNL     1     111.709 112.430  80.966  1.00  0.00    -0.234 NA
ATOM      3  C   UNL     1     110.901 113.437  80.570  1.00  0.00     0.088 A 
ATOM      4  C   UNL     1     110.842 114.605  81.338  1.00  0.00     0.030 A 
ATOM      5  C   UNL     1     110.087 115.692  80.906  1.00  0.00     0.002 A 
ATOM      6  C   UNL     1     109.410 115.627  79.690  1.00  0.00     0.002 A 
ATOM      7  C   UNL     1     109.450 114.462  78.919  1.00  0.00     0.028 A 
ATOM      8  C   UNL     1     110.155 113.313  79.370  1.00  0.00     0.070 A 
ATOM      9  N   UNL     1     110.182 112.110  78.677  1.00  0.00    -0.301 N 
ATOM     10  C   UNL     1     111.115 111.157  79.045  1.00  0.00     0.284 A 
ATOM     11  O   UNL     1     111.324 110.149  78.314  1.00  0.00    -0.267 OA
ENDROOT
BRANCH   1  12
ATOM     12  C   UNL     1     112.811 110.276  80.714  1.00  0.00     0.360 C 
ATOM     13  O   UNL     1     114.012 110.594  80.935  1.00  0.00    -0.244 OA
BRANCH  12  14
ATOM     14  O   UNL     1     112.405 108.963  80.935  1.00  0.00    -0.476 OA
ATOM     15  H   UNL     1     113.034 108.310  81.331  1.00  0.00     0.297 HD
ENDBRANCH  12  14
ENDBRANCH   1  12
BRANCH   9  16
ATOM     16  C   UNL     1     109.221 111.828  77.564  1.00  0.00     0.094 C 
ATOM     17  C   UNL     1     109.782 110.831  76.518  1.00  0.00     0.044 C 
ATOM     18  C   UNL     1     108.688 113.137  76.945  1.00  0.00     0.044 C 
ATOM     19  C   UNL     1     108.954 110.781  75.214  1.00  0.00     0.059 C 
ATOM     20  C   UNL     1     107.950 112.941  75.602  1.00  0.00     0.059 C 
ATOM     21  C   UNL     1     107.602 110.038  75.352  1.00  0.00     0.019 C 
ATOM     22  N   UNL     1     108.792 112.152  74.664  1.00  0.00    -0.294 NA
ATOM     23  C   UNL     1     106.527 112.349  75.751  1.00  0.00     0.019 C 
ATOM     24  C   UNL     1     106.493 110.842  76.052  1.00  0.00     0.003 C 
BRANCH  22  25
ATOM     25  C   UNL     1     108.352 112.205  73.226  1.00  0.00     0.057 C 
ATOM     26  C   UNL     1     109.060 111.092  72.389  1.00  0.00     0.022 C 
ATOM     27  C   UNL     1     108.610 113.621  72.618  1.00  0.00     0.022 C 
ATOM     28  C   UNL     1     109.075 111.291  70.856  1.00  0.00    -0.009 C 
ATOM     29  C   UNL     1     108.642 113.708  71.075  1.00  0.00    -0.009 C 
ATOM     30  C   UNL     1     107.706 111.051  70.178  1.00  0.00     0.004 C 
ATOM     31  C   UNL     1     109.607 112.675  70.509  1.00  0.00     0.007 C 
ATOM     32  C   UNL     1     107.253 113.577  70.409  1.00  0.00     0.004 C 
ATOM     33  C   UNL     1     106.665 112.155  70.444  1.00  0.00     0.001 C 
ENDBRANCH  22  25
ENDBRANCH   9  16
TORSDOF 4
ENDMDL
MODEL 12
REMARK VINA RESULT:      -7.3      4.572      8.252
REMARK SMILES O=C(O)c1nc2ccccc2n([C@@H]2C[C@H]3CCC[C@@H](C2)N3[C@H]2C[C@@H]3CCC[C@@H](C3)C2)c1=O
REMARK SMILES IDX 4 1 5 2 6 3 7 4 8 5 9 6 10 7 11 8 12 9 31 10 32 11 2 12 1 13
REMARK SMILES IDX 3 14 13 16 14 17 20 18 15 19 19 20 16 21 21 22 18 23 17 24
REMARK SMILES IDX 22 25 30 26 23 27 28 28 24 29 27 30 29 31 25 32 26 33
REMARK H PARENT 3 15
ROOT
ATOM      1  C   UNL     1     111.993 110.103  73.623  1.00  0.00     0.214 A 
ATOM      2  N   UNL     1     111.485 110.360  72.396  1.00  0.00    -0.234 NA
ATOM      3  C   UNL     1     110.235 110.845  72.227  1.00  0.00     0.088 A 
ATOM      4  C   UNL     1     109.743 111.022  70.929  1.00  0.00     0.030 A 
ATOM      5  C   UNL     1     108.428 111.434  70.728  1.00  0.00     0.002 A 
ATOM      6  C   UNL     1     107.591 111.643  71.821  1.00  0.00     0.002 A 
ATOM      7  C   UNL     1     108.073 111.481  73.123  1.00  0.00     0.028 A 
ATOM      8  C   UNL     1     109.430 111.130  73.359  1.00  0.00     0.070 A 
ATOM      9  N   UNL     1     109.981 111.013  74.629  1.00  0.00    -0.301 N 
ATOM     10  C   UNL     1     111.213 110.397  74.759  1.00  0.00     0.284 A 
ATOM     11  O   UNL     1     111.650 110.072  75.899  1.00  0.00    -0.267 OA
ENDROOT
BRANCH   1  12
ATOM     12  C   UNL     1     113.351 109.520  73.710  1.00  0.00     0.360 C 
ATOM     13  O   UNL     1     113.658 108.547  72.969  1.00  0.00    -0.244 OA
BRANCH  12  14
ATOM     14  O   UNL     1     114.300 110.030  74.591  1.00  0.00    -0.476 OA
ATOM     15  H   UNL     1     114.015 110.410  75.460  1.00  0.00     0.297 HD
ENDBRANCH  12  14
ENDBRANCH   1  12
BRANCH   9  16
ATOM     16  C   UNL     1     109.279 111.548  75.838  1.00  0.00     0.094 C 
ATOM     17  C   UNL     1     108.741 110.432  76.770  1.00  0.00     0.044 C 
ATOM     18  C   UNL     1     108.212 112.591  75.444  1.00  0.00     0.044 C 
ATOM     19  C   UNL     1     107.745 110.948  77.832  1.00  0.00     0.059 C 
ATOM     20  C   UNL     1     107.237 112.952  76.587  1.00  0.00     0.059 C 
ATOM     21  C   UNL     1     108.409 111.739  78.988  1.00  0.00     0.019 C 
ATOM     22  N   UNL     1     106.656 111.716  77.175  1.00  0.00    -0.294 NA
ATOM     23  C   UNL     1     107.850 113.880  77.663  1.00  0.00     0.019 C 
ATOM     24  C   UNL     1     108.814 113.179  78.635  1.00  0.00     0.003 C 
BRANCH  22  25
ATOM     25  C   UNL     1     105.438 111.938  78.031  1.00  0.00     0.057 C 
ATOM     26  C   UNL     1     105.045 110.627  78.785  1.00  0.00     0.022 C 
ATOM     27  C   UNL     1     104.248 112.477  77.175  1.00  0.00     0.022 C 
ATOM     28  C   UNL     1     103.599 110.555  79.326  1.00  0.00    -0.009 C 
ATOM     29  C   UNL     1     102.838 112.325  77.789  1.00  0.00    -0.009 C 
ATOM     30  C   UNL     1     103.347 111.445  80.565  1.00  0.00     0.004 C 
ATOM     31  C   UNL     1     102.604 110.884  78.222  1.00  0.00     0.007 C 
ATOM     32  C   UNL     1     102.553 113.296  78.958  1.00  0.00     0.004 C 
ATOM     33  C   UNL     1     103.298 112.954  80.262  1.00  0.00     0.001 C 
ENDBRANCH  22  25
ENDBRANCH   9  16
TORSDOF 4
ENDMDL
