MODEL 1
REMARK VINA RESULT:     -11.0      0.000      0.000
REMARK SMILES Cc1ccc(S(=O)(=O)N2CCC[C@@H]([C@@H]3NC(=O)[C@H]4NNN(Cc5ccccc5)[C@H]4N3)C2)cc1
REMARK SMILES IDX 9 1 13 2 12 3 31 4 11 5 10 6 6 7 7 8 8 9 5 10 4 11 32 12
REMARK SMILES IDX 3 13 33 14 2 15 1 16 14 17 30 18 15 19 29 20 16 21 21 22
REMARK SMILES IDX 18 23 17 24 20 25 19 26 22 31 23 32 24 33 28 34 25 35 27 36
REMARK SMILES IDX 26 37
REMARK H PARENT 30 27 15 28 20 29 19 30
ROOT
ATOM      1  N   UNL     1     109.162 111.971  77.027  1.00  0.00    -0.197 NA
ATOM      2  C   UNL     1     110.482 111.999  79.120  1.00  0.00     0.042 C 
ATOM      3  C   UNL     1     111.618 111.255  78.404  1.00  0.00     0.010 C 
ATOM      4  C   UNL     1     109.680 112.844  78.124  1.00  0.00     0.109 C 
ATOM      5  C   UNL     1     111.075 110.433  77.237  1.00  0.00     0.017 C 
ATOM      6  C   UNL     1     110.264 111.297  76.281  1.00  0.00     0.102 C 
ENDROOT
BRANCH   1   7
ATOM      7  S   UNL     1     107.939 112.670  76.052  1.00  0.00     0.243 S 
ATOM      8  O   UNL     1     107.806 111.896  74.837  1.00  0.00    -0.207 OA
ATOM      9  O   UNL     1     108.135 114.102  76.007  1.00  0.00    -0.207 OA
BRANCH   7  10
ATOM     10  C   UNL     1     106.524 112.346  77.057  1.00  0.00     0.082 A 
ATOM     11  C   UNL     1     105.242 112.537  76.538  1.00  0.00     0.022 A 
ATOM     12  C   UNL     1     106.685 111.904  78.369  1.00  0.00     0.022 A 
ATOM     13  C   UNL     1     104.124 112.285  77.332  1.00  0.00     0.005 A 
ATOM     14  C   UNL     1     105.567 111.652  79.164  1.00  0.00     0.005 A 
ATOM     15  C   UNL     1     104.287 111.842  78.645  1.00  0.00    -0.051 A 
ATOM     16  C   UNL     1     103.090 111.573  79.495  1.00  0.00     0.044 C 
ENDBRANCH   7  10
ENDBRANCH   1   7
BRANCH   2  17
ATOM     17  C   UNL     1     111.035 112.871  80.245  1.00  0.00     0.155 C 
ATOM     18  N   UNL     1     112.487 113.029  80.206  1.00  0.00    -0.279 NA
ATOM     19  N   UNL     1     110.420 114.185  80.286  1.00  0.00    -0.339 N 
ATOM     20  C   UNL     1     112.939 113.797  79.045  1.00  0.00     0.170 C 
ATOM     21  C   UNL     1     110.828 115.237  79.492  1.00  0.00     0.242 C 
ATOM     22  N   UNL     1     114.172 114.532  79.352  1.00  0.00    -0.207 NA
ATOM     23  C   UNL     1     111.981 114.900  78.562  1.00  0.00     0.193 C 
ATOM     24  O   UNL     1     110.278 116.337  79.506  1.00  0.00    -0.273 OA
ATOM     25  N   UNL     1     114.153 115.634  78.434  1.00  0.00    -0.189 NA
ATOM     26  N   UNL     1     112.801 116.102  78.389  1.00  0.00    -0.228 NA
ATOM     27  H   UNL     1     112.978 112.141  80.268  1.00  0.00     0.126 HD
ATOM     28  H   UNL     1     109.633 114.331  80.911  1.00  0.00     0.165 HD
ATOM     29  H   UNL     1     114.409 115.313  77.500  1.00  0.00     0.161 HD
ATOM     30  H   UNL     1     112.610 116.540  77.490  1.00  0.00     0.144 HD
BRANCH  22  31
ATOM     31  C   UNL     1     115.380 113.739  79.149  1.00  0.00     0.141 C 
BRANCH  31  32
ATOM     32  C   UNL     1     116.438 114.056  80.173  1.00  0.00    -0.032 A 
ATOM     33  C   UNL     1     116.296 115.169  81.002  1.00  0.00     0.005 A 
ATOM     34  C   UNL     1     117.559 113.236  80.293  1.00  0.00     0.005 A 
ATOM     35  C   UNL     1     117.276 115.462  81.951  1.00  0.00     0.000 A 
ATOM     36  C   UNL     1     118.539 113.528  81.242  1.00  0.00     0.000 A 
ATOM     37  C   UNL     1     118.398 114.641  82.071  1.00  0.00     0.000 A 
ENDBRANCH  31  32
ENDBRANCH  22  31
ENDBRANCH   2  17
TORSDOF 5
ENDMDL
MODEL 2
REMARK VINA RESULT:     -10.8      2.851      8.437
REMARK SMILES Cc1ccc(S(=O)(=O)N2CCC[C@@H]([C@@H]3NC(=O)[C@H]4NNN(Cc5ccccc5)[C@H]4N3)C2)cc1
REMARK SMILES IDX 9 1 13 2 12 3 31 4 11 5 10 6 6 7 7 8 8 9 5 10 4 11 32 12
REMARK SMILES IDX 3 13 33 14 2 15 1 16 14 17 30 18 15 19 29 20 16 21 21 22
REMARK SMILES IDX 18 23 17 24 20 25 19 26 22 31 23 32 24 33 28 34 25 35 27 36
REMARK SMILES IDX 26 37
REMARK H PARENT 30 27 15 28 20 29 19 30
ROOT
ATOM      1  N   UNL     1     110.455 113.639  78.944  1.00  0.00    -0.197 NA
ATOM      2  C   UNL     1     108.598 112.714  77.595  1.00  0.00     0.042 C 
ATOM      3  C   UNL     1     108.363 111.642  78.668  1.00  0.00     0.010 C 
ATOM      4  C   UNL     1     109.194 113.981  78.220  1.00  0.00     0.109 C 
ATOM      5  C   UNL     1     109.647 111.367  79.449  1.00  0.00     0.017 C 
ATOM      6  C   UNL     1     110.224 112.648  80.035  1.00  0.00     0.102 C 
ENDROOT
BRANCH   1   7
ATOM      7  S   UNL     1     111.442 114.975  79.365  1.00  0.00     0.243 S 
ATOM      8  O   UNL     1     111.407 115.152  80.801  1.00  0.00    -0.207 OA
ATOM      9  O   UNL     1     111.150 116.074  78.471  1.00  0.00    -0.207 OA
BRANCH   7  10
ATOM     10  C   UNL     1     113.029 114.331  78.938  1.00  0.00     0.082 A 
ATOM     11  C   UNL     1     114.139 115.177  78.907  1.00  0.00     0.022 A 
ATOM     12  C   UNL     1     113.174 112.980  78.626  1.00  0.00     0.022 A 
ATOM     13  C   UNL     1     115.392 114.670  78.566  1.00  0.00     0.005 A 
ATOM     14  C   UNL     1     114.428 112.473  78.285  1.00  0.00     0.005 A 
ATOM     15  C   UNL     1     115.536 113.317  78.256  1.00  0.00    -0.051 A 
ATOM     16  C   UNL     1     116.878 112.775  77.890  1.00  0.00     0.044 C 
ENDBRANCH   7  10
ENDBRANCH   1   7
BRANCH   2  17
ATOM     17  C   UNL     1     107.299 113.034  76.860  1.00  0.00     0.155 C 
ATOM     18  N   UNL     1     107.420 112.983  75.404  1.00  0.00    -0.279 NA
ATOM     19  N   UNL     1     106.200 112.180  77.270  1.00  0.00    -0.339 N 
ATOM     20  C   UNL     1     107.665 111.629  74.907  1.00  0.00     0.170 C 
ATOM     21  C   UNL     1     105.988 110.918  76.754  1.00  0.00     0.242 C 
ATOM     22  N   UNL     1     107.098 111.455  73.563  1.00  0.00    -0.207 NA
ATOM     23  C   UNL     1     107.013 110.494  75.715  1.00  0.00     0.193 C 
ATOM     24  O   UNL     1     105.077 110.185  77.134  1.00  0.00    -0.273 OA
ATOM     25  N   UNL     1     106.867 110.043  73.469  1.00  0.00    -0.189 NA
ATOM     26  N   UNL     1     106.348 109.630  74.737  1.00  0.00    -0.228 NA
ATOM     27  H   UNL     1     108.115 113.633  75.047  1.00  0.00     0.126 HD
ATOM     28  H   UNL     1     105.570 112.517  77.992  1.00  0.00     0.165 HD
ATOM     29  H   UNL     1     107.750 109.555  73.313  1.00  0.00     0.161 HD
ATOM     30  H   UNL     1     106.574 108.652  74.909  1.00  0.00     0.144 HD
BRANCH  22  31
ATOM     31  C   UNL     1     108.000 111.882  72.499  1.00  0.00     0.141 C 
BRANCH  31  32
ATOM     32  C   UNL     1     109.429 111.505  72.790  1.00  0.00    -0.032 A 
ATOM     33  C   UNL     1     109.961 110.327  72.265  1.00  0.00     0.005 A 
ATOM     34  C   UNL     1     110.221 112.335  73.583  1.00  0.00     0.005 A 
ATOM     35  C   UNL     1     111.284 109.979  72.534  1.00  0.00     0.000 A 
ATOM     36  C   UNL     1     111.544 111.987  73.851  1.00  0.00     0.000 A 
ATOM     37  C   UNL     1     112.076 110.809  73.327  1.00  0.00     0.000 A 
ENDBRANCH  31  32
ENDBRANCH  22  31
ENDBRANCH   2  17
TORSDOF 5
ENDMDL
MODEL 3
REMARK VINA RESULT:     -10.6      1.999      2.923
REMARK SMILES Cc1ccc(S(=O)(=O)N2CCC[C@@H]([C@@H]3NC(=O)[C@H]4NNN(Cc5ccccc5)[C@H]4N3)C2)cc1
REMARK SMILES IDX 9 1 13 2 12 3 31 4 11 5 10 6 6 7 7 8 8 9 5 10 4 11 32 12
REMARK SMILES IDX 3 13 33 14 2 15 1 16 14 17 30 18 15 19 29 20 16 21 21 22
REMARK SMILES IDX 18 23 17 24 20 25 19 26 22 31 23 32 24 33 28 34 25 35 27 36
REMARK SMILES IDX 26 37
REMARK H PARENT 30 27 15 28 20 29 19 30
ROOT
ATOM      1  N   UNL     1     108.804 111.659  77.494  1.00  0.00    -0.197 NA
ATOM      2  C   UNL     1     110.547 111.814  79.244  1.00  0.00     0.042 C 
ATOM      3  C   UNL     1     111.615 111.459  78.200  1.00  0.00     0.010 C 
ATOM      4  C   UNL     1     109.360 112.521  78.581  1.00  0.00     0.109 C 
ATOM      5  C   UNL     1     111.008 110.646  77.059  1.00  0.00     0.017 C 
ATOM      6  C   UNL     1     109.817 111.365  76.439  1.00  0.00     0.102 C 
ENDROOT
BRANCH   1   7
ATOM      7  S   UNL     1     107.257 112.116  76.916  1.00  0.00     0.243 S 
ATOM      8  O   UNL     1     107.243 113.544  76.688  1.00  0.00    -0.207 OA
ATOM      9  O   UNL     1     106.246 111.480  77.731  1.00  0.00    -0.207 OA
BRANCH   7  10
ATOM     10  C   UNL     1     107.269 111.316  75.342  1.00  0.00     0.082 A 
ATOM     11  C   UNL     1     106.718 110.042  75.204  1.00  0.00     0.022 A 
ATOM     12  C   UNL     1     107.833 111.955  74.239  1.00  0.00     0.022 A 
ATOM     13  C   UNL     1     106.730 109.408  73.961  1.00  0.00     0.005 A 
ATOM     14  C   UNL     1     107.845 111.322  72.996  1.00  0.00     0.005 A 
ATOM     15  C   UNL     1     107.293 110.049  72.858  1.00  0.00    -0.051 A 
ATOM     16  C   UNL     1     107.306 109.371  71.529  1.00  0.00     0.044 C 
ENDBRANCH   7  10
ENDBRANCH   1   7
BRANCH   2  17
ATOM     17  C   UNL     1     111.143 112.682  80.350  1.00  0.00     0.155 C 
ATOM     18  N   UNL     1     112.569 112.953  80.180  1.00  0.00    -0.279 NA
ATOM     19  N   UNL     1     110.442 113.942  80.509  1.00  0.00    -0.339 N 
ATOM     20  C   UNL     1     112.848 113.797  79.018  1.00  0.00     0.170 C 
ATOM     21  C   UNL     1     110.692 115.052  79.729  1.00  0.00     0.242 C 
ATOM     22  N   UNL     1     114.049 114.611  79.241  1.00  0.00    -0.207 NA
ATOM     23  C   UNL     1     111.770 114.841  78.679  1.00  0.00     0.193 C 
ATOM     24  O   UNL     1     110.068 116.105  79.845  1.00  0.00    -0.273 OA
ATOM     25  N   UNL     1     113.860 115.743  78.380  1.00  0.00    -0.189 NA
ATOM     26  N   UNL     1     112.480 116.107  78.484  1.00  0.00    -0.228 NA
ATOM     27  H   UNL     1     113.127 112.103  80.155  1.00  0.00     0.126 HD
ATOM     28  H   UNL     1     109.711 114.003  81.212  1.00  0.00     0.165 HD
ATOM     29  H   UNL     1     114.046 115.479  77.412  1.00  0.00     0.161 HD
ATOM     30  H   UNL     1     112.170 116.564  77.629  1.00  0.00     0.144 HD
BRANCH  22  31
ATOM     31  C   UNL     1     115.285 113.922  78.888  1.00  0.00     0.141 C 
BRANCH  31  32
ATOM     32  C   UNL     1     116.355 114.121  79.929  1.00  0.00    -0.032 A 
ATOM     33  C   UNL     1     117.404 113.207  80.036  1.00  0.00     0.005 A 
ATOM     34  C   UNL     1     116.299 115.220  80.785  1.00  0.00     0.005 A 
ATOM     35  C   UNL     1     118.395 113.392  81.000  1.00  0.00     0.000 A 
ATOM     36  C   UNL     1     117.290 115.406  81.749  1.00  0.00     0.000 A 
ATOM     37  C   UNL     1     118.338 114.491  81.856  1.00  0.00     0.000 A 
ENDBRANCH  31  32
ENDBRANCH  22  31
ENDBRANCH   2  17
TORSDOF 5
ENDMDL
MODEL 4
REMARK VINA RESULT:     -10.6      3.029      8.844
REMARK SMILES Cc1ccc(S(=O)(=O)N2CCC[C@@H]([C@@H]3NC(=O)[C@H]4NNN(Cc5ccccc5)[C@H]4N3)C2)cc1
REMARK SMILES IDX 9 1 13 2 12 3 31 4 11 5 10 6 6 7 7 8 8 9 5 10 4 11 32 12
REMARK SMILES IDX 3 13 33 14 2 15 1 16 14 17 30 18 15 19 29 20 16 21 21 22
REMARK SMILES IDX 18 23 17 24 20 25 19 26 22 31 23 32 24 33 28 34 25 35 27 36
REMARK SMILES IDX 26 37
REMARK H PARENT 30 27 15 28 20 29 19 30
ROOT
ATOM      1  N   UNL     1     114.300 114.497  78.950  1.00  0.00    -0.197 NA
ATOM      2  C   UNL     1     111.847 114.283  78.699  1.00  0.00     0.042 C 
ATOM      3  C   UNL     1     111.718 114.079  80.215  1.00  0.00     0.010 C 
ATOM      4  C   UNL     1     113.079 115.136  78.373  1.00  0.00     0.109 C 
ATOM      5  C   UNL     1     113.007 113.500  80.795  1.00  0.00     0.017 C 
ATOM      6  C   UNL     1     114.212 114.357  80.433  1.00  0.00     0.102 C 
ENDROOT
BRANCH   1   7
ATOM      7  S   UNL     1     115.790 115.101  78.359  1.00  0.00     0.243 S 
ATOM      8  O   UNL     1     115.732 116.546  78.323  1.00  0.00    -0.207 OA
ATOM      9  O   UNL     1     116.174 114.340  77.190  1.00  0.00    -0.207 OA
BRANCH   7  10
ATOM     10  C   UNL     1     116.858 114.636  79.686  1.00  0.00     0.082 A 
ATOM     11  C   UNL     1     117.028 115.490  80.776  1.00  0.00     0.022 A 
ATOM     12  C   UNL     1     117.534 113.417  79.643  1.00  0.00     0.022 A 
ATOM     13  C   UNL     1     117.874 115.124  81.823  1.00  0.00     0.005 A 
ATOM     14  C   UNL     1     118.380 113.052  80.690  1.00  0.00     0.005 A 
ATOM     15  C   UNL     1     118.550 113.905  81.779  1.00  0.00    -0.051 A 
ATOM     16  C   UNL     1     119.455 113.514  82.899  1.00  0.00     0.044 C 
ENDBRANCH   7  10
ENDBRANCH   1   7
BRANCH   2  17
ATOM     17  C   UNL     1     110.582 114.923  78.131  1.00  0.00     0.155 C 
ATOM     18  N   UNL     1     110.385 114.668  76.706  1.00  0.00    -0.279 NA
ATOM     19  N   UNL     1     109.385 114.526  78.849  1.00  0.00    -0.339 N 
ATOM     20  C   UNL     1     110.108 113.261  76.418  1.00  0.00     0.170 C 
ATOM     21  C   UNL     1     108.706 113.351  78.598  1.00  0.00     0.242 C 
ATOM     22  N   UNL     1     109.255 113.129  75.230  1.00  0.00    -0.207 NA
ATOM     23  C   UNL     1     109.325 112.501  77.502  1.00  0.00     0.193 C 
ATOM     24  O   UNL     1     107.714 113.004  79.237  1.00  0.00    -0.273 OA
ATOM     25  N   UNL     1     108.598 111.868  75.418  1.00  0.00    -0.189 NA
ATOM     26  N   UNL     1     108.248 111.794  76.803  1.00  0.00    -0.228 NA
ATOM     27  H   UNL     1     111.155 115.011  76.138  1.00  0.00     0.126 HD
ATOM     28  H   UNL     1     109.045 115.129  79.592  1.00  0.00     0.165 HD
ATOM     29  H   UNL     1     109.245 111.105  75.213  1.00  0.00     0.161 HD
ATOM     30  H   UNL     1     108.202 110.823  77.104  1.00  0.00     0.144 HD
BRANCH  22  31
ATOM     31  C   UNL     1     110.008 113.114  73.980  1.00  0.00     0.141 C 
BRANCH  31  32
ATOM     32  C   UNL     1     110.840 111.866  73.841  1.00  0.00    -0.032 A 
ATOM     33  C   UNL     1     111.783 111.544  74.817  1.00  0.00     0.005 A 
ATOM     34  C   UNL     1     110.668 111.033  72.736  1.00  0.00     0.005 A 
ATOM     35  C   UNL     1     112.554 110.388  74.688  1.00  0.00     0.000 A 
ATOM     36  C   UNL     1     111.437 109.877  72.607  1.00  0.00     0.000 A 
ATOM     37  C   UNL     1     112.380 109.555  73.583  1.00  0.00     0.000 A 
ENDBRANCH  31  32
ENDBRANCH  22  31
ENDBRANCH   2  17
TORSDOF 5
ENDMDL
MODEL 5
REMARK VINA RESULT:     -10.6      2.824      4.415
REMARK SMILES Cc1ccc(S(=O)(=O)N2CCC[C@@H]([C@@H]3NC(=O)[C@H]4NNN(Cc5ccccc5)[C@H]4N3)C2)cc1
REMARK SMILES IDX 9 1 13 2 12 3 31 4 11 5 10 6 6 7 7 8 8 9 5 10 4 11 32 12
REMARK SMILES IDX 3 13 33 14 2 15 1 16 14 17 30 18 15 19 29 20 16 21 21 22
REMARK SMILES IDX 18 23 17 24 20 25 19 26 22 31 23 32 24 33 28 34 25 35 27 36
REMARK SMILES IDX 26 37
REMARK H PARENT 30 27 15 28 20 29 19 30
ROOT
ATOM      1  N   UNL     1     110.750 110.897  76.127  1.00  0.00    -0.197 NA
ATOM      2  C   UNL     1     110.234 112.179  78.180  1.00  0.00     0.042 C 
ATOM      3  C   UNL     1     109.116 111.181  78.513  1.00  0.00     0.010 C 
ATOM      4  C   UNL     1     111.338 111.499  77.362  1.00  0.00     0.109 C 
ATOM      5  C   UNL     1     108.586 110.519  77.243  1.00  0.00     0.017 C 
ATOM      6  C   UNL     1     109.710 109.875  76.442  1.00  0.00     0.102 C 
ENDROOT
BRANCH   1   7
ATOM      7  S   UNL     1     111.882 110.442  74.924  1.00  0.00     0.243 S 
ATOM      8  O   UNL     1     111.867 109.002  74.784  1.00  0.00    -0.207 OA
ATOM      9  O   UNL     1     113.119 111.157  75.150  1.00  0.00    -0.207 OA
BRANCH   7  10
ATOM     10  C   UNL     1     111.108 111.132  73.496  1.00  0.00     0.082 A 
ATOM     11  C   UNL     1     110.871 112.506  73.427  1.00  0.00     0.022 A 
ATOM     12  C   UNL     1     110.728 110.306  72.439  1.00  0.00     0.022 A 
ATOM     13  C   UNL     1     110.256 113.051  72.300  1.00  0.00     0.005 A 
ATOM     14  C   UNL     1     110.113 110.852  71.313  1.00  0.00     0.005 A 
ATOM     15  C   UNL     1     109.878 112.224  71.243  1.00  0.00    -0.051 A 
ATOM     16  C   UNL     1     109.220 112.808  70.038  1.00  0.00     0.044 C 
ENDBRANCH   7  10
ENDBRANCH   1   7
BRANCH   2  17
ATOM     17  C   UNL     1     110.808 112.791  79.456  1.00  0.00     0.155 C 
ATOM     18  N   UNL     1     112.177 113.280  79.308  1.00  0.00    -0.279 NA
ATOM     19  N   UNL     1     109.981 113.860  79.983  1.00  0.00    -0.339 N 
ATOM     20  C   UNL     1     112.269 114.432  78.411  1.00  0.00     0.170 C 
ATOM     21  C   UNL     1     110.044 115.161  79.527  1.00  0.00     0.242 C 
ATOM     22  N   UNL     1     113.383 115.307  78.798  1.00  0.00    -0.207 NA
ATOM     23  C   UNL     1     111.057 115.379  78.416  1.00  0.00     0.193 C 
ATOM     24  O   UNL     1     109.314 116.054  79.952  1.00  0.00    -0.273 OA
ATOM     25  N   UNL     1     113.002 116.593  78.289  1.00  0.00    -0.189 NA
ATOM     26  N   UNL     1     111.601 116.733  78.546  1.00  0.00    -0.228 NA
ATOM     27  H   UNL     1     112.825 112.548  79.029  1.00  0.00     0.126 HD
ATOM     28  H   UNL     1     109.303 113.636  80.705  1.00  0.00     0.165 HD
ATOM     29  H   UNL     1     113.144 116.623  77.279  1.00  0.00     0.161 HD
ATOM     30  H   UNL     1     111.178 117.357  77.861  1.00  0.00     0.144 HD
BRANCH  22  31
ATOM     31  C   UNL     1     114.660 114.904  78.220  1.00  0.00     0.141 C 
BRANCH  31  32
ATOM     32  C   UNL     1     115.797 115.080  79.192  1.00  0.00    -0.032 A 
ATOM     33  C   UNL     1     117.096 115.265  78.719  1.00  0.00     0.005 A 
ATOM     34  C   UNL     1     115.551 115.060  80.564  1.00  0.00     0.005 A 
ATOM     35  C   UNL     1     118.150 115.428  79.619  1.00  0.00     0.000 A 
ATOM     36  C   UNL     1     116.603 115.224  81.464  1.00  0.00     0.000 A 
ATOM     37  C   UNL     1     117.903 115.408  80.992  1.00  0.00     0.000 A 
ENDBRANCH  31  32
ENDBRANCH  22  31
ENDBRANCH   2  17
TORSDOF 5
ENDMDL
MODEL 6
REMARK VINA RESULT:     -10.5      3.064      9.055
REMARK SMILES Cc1ccc(S(=O)(=O)N2CCC[C@@H]([C@@H]3NC(=O)[C@H]4NNN(Cc5ccccc5)[C@H]4N3)C2)cc1
REMARK SMILES IDX 9 1 13 2 12 3 31 4 11 5 10 6 6 7 7 8 8 9 5 10 4 11 32 12
REMARK SMILES IDX 3 13 33 14 2 15 1 16 14 17 30 18 15 19 29 20 16 21 21 22
REMARK SMILES IDX 18 23 17 24 20 25 19 26 22 31 23 32 24 33 28 34 25 35 27 36
REMARK SMILES IDX 26 37
REMARK H PARENT 30 27 15 28 20 29 19 30
ROOT
ATOM      1  N   UNL     1     114.394 114.310  78.823  1.00  0.00    -0.197 NA
ATOM      2  C   UNL     1     111.926 114.207  78.671  1.00  0.00     0.042 C 
ATOM      3  C   UNL     1     111.870 113.640  80.097  1.00  0.00     0.010 C 
ATOM      4  C   UNL     1     113.165 115.092  78.492  1.00  0.00     0.109 C 
ATOM      5  C   UNL     1     113.169 112.914  80.442  1.00  0.00     0.017 C 
ATOM      6  C   UNL     1     114.379 113.813  80.230  1.00  0.00     0.102 C 
ENDROOT
BRANCH   1   7
ATOM      7  S   UNL     1     115.870 115.014  78.312  1.00  0.00     0.243 S 
ATOM      8  O   UNL     1     115.728 116.454  78.306  1.00  0.00    -0.207 OA
ATOM      9  O   UNL     1     116.346 114.308  77.143  1.00  0.00    -0.207 OA
BRANCH   7  10
ATOM     10  C   UNL     1     116.906 114.578  79.672  1.00  0.00     0.082 A 
ATOM     11  C   UNL     1     116.968 115.404  80.795  1.00  0.00     0.022 A 
ATOM     12  C   UNL     1     117.668 113.411  79.623  1.00  0.00     0.022 A 
ATOM     13  C   UNL     1     117.789 115.062  81.868  1.00  0.00     0.005 A 
ATOM     14  C   UNL     1     118.489 113.068  80.697  1.00  0.00     0.005 A 
ATOM     15  C   UNL     1     118.549 113.893  81.819  1.00  0.00    -0.051 A 
ATOM     16  C   UNL     1     119.429 113.527  82.968  1.00  0.00     0.044 C 
ENDBRANCH   7  10
ENDBRANCH   1   7
BRANCH   2  17
ATOM     17  C   UNL     1     110.654 114.988  78.352  1.00  0.00     0.155 C 
ATOM     18  N   UNL     1     110.312 114.997  76.931  1.00  0.00    -0.279 NA
ATOM     19  N   UNL     1     109.507 114.521  79.108  1.00  0.00    -0.339 N 
ATOM     20  C   UNL     1     109.928 113.675  76.436  1.00  0.00     0.170 C 
ATOM     21  C   UNL     1     108.741 113.438  78.729  1.00  0.00     0.242 C 
ATOM     22  N   UNL     1     108.964 113.789  75.334  1.00  0.00    -0.207 NA
ATOM     23  C   UNL     1     109.205 112.769  77.446  1.00  0.00     0.193 C 
ATOM     24  O   UNL     1     107.793 113.024  79.395  1.00  0.00    -0.273 OA
ATOM     25  N   UNL     1     108.255 112.543  75.369  1.00  0.00    -0.189 NA
ATOM     26  N   UNL     1     108.029 112.241  76.749  1.00  0.00    -0.228 NA
ATOM     27  H   UNL     1     111.045 115.402  76.356  1.00  0.00     0.126 HD
ATOM     28  H   UNL     1     109.272 114.998  79.973  1.00  0.00     0.165 HD
ATOM     29  H   UNL     1     108.834 111.802  74.972  1.00  0.00     0.161 HD
ATOM     30  H   UNL     1     107.955 111.234  76.883  1.00  0.00     0.144 HD
BRANCH  22  31
ATOM     31  C   UNL     1     109.597 113.964  74.031  1.00  0.00     0.141 C 
BRANCH  31  32
ATOM     32  C   UNL     1     110.076 112.655  73.461  1.00  0.00    -0.032 A 
ATOM     33  C   UNL     1     109.434 112.099  72.354  1.00  0.00     0.005 A 
ATOM     34  C   UNL     1     111.163 111.999  74.039  1.00  0.00     0.005 A 
ATOM     35  C   UNL     1     109.879 110.887  71.826  1.00  0.00     0.000 A 
ATOM     36  C   UNL     1     111.608 110.788  73.510  1.00  0.00     0.000 A 
ATOM     37  C   UNL     1     110.966 110.231  72.404  1.00  0.00     0.000 A 
ENDBRANCH  31  32
ENDBRANCH  22  31
ENDBRANCH   2  17
TORSDOF 5
ENDMDL
MODEL 7
REMARK VINA RESULT:     -10.4      1.308      1.545
REMARK SMILES Cc1ccc(S(=O)(=O)N2CCC[C@@H]([C@@H]3NC(=O)[C@H]4NNN(Cc5ccccc5)[C@H]4N3)C2)cc1
REMARK SMILES IDX 9 1 13 2 12 3 31 4 11 5 10 6 6 7 7 8 8 9 5 10 4 11 32 12
REMARK SMILES IDX 3 13 33 14 2 15 1 16 14 17 30 18 15 19 29 20 16 21 21 22
REMARK SMILES IDX 18 23 17 24 20 25 19 26 22 31 23 32 24 33 28 34 25 35 27 36
REMARK SMILES IDX 26 37
REMARK H PARENT 30 27 15 28 20 29 19 30
ROOT
ATOM      1  N   UNL     1     109.742 111.659  75.423  1.00  0.00    -0.197 NA
ATOM      2  C   UNL     1     110.944 111.141  77.524  1.00  0.00     0.042 C 
ATOM      3  C   UNL     1     112.257 111.036  76.737  1.00  0.00     0.010 C 
ATOM      4  C   UNL     1     109.976 112.106  76.830  1.00  0.00     0.109 C 
ATOM      5  C   UNL     1     111.988 110.656  75.283  1.00  0.00     0.017 C 
ATOM      6  C   UNL     1     111.006 111.620  74.631  1.00  0.00     0.102 C 
ENDROOT
BRANCH   1   7
ATOM      7  S   UNL     1     108.407 112.389  74.636  1.00  0.00     0.243 S 
ATOM      8  O   UNL     1     108.258 111.803  73.321  1.00  0.00    -0.207 OA
ATOM      9  O   UNL     1     108.486 113.823  74.809  1.00  0.00    -0.207 OA
BRANCH   7  10
ATOM     10  C   UNL     1     107.090 111.790  75.647  1.00  0.00     0.082 A 
ATOM     11  C   UNL     1     106.804 110.425  75.684  1.00  0.00     0.022 A 
ATOM     12  C   UNL     1     106.331 112.682  76.405  1.00  0.00     0.022 A 
ATOM     13  C   UNL     1     105.761 109.952  76.480  1.00  0.00     0.005 A 
ATOM     14  C   UNL     1     105.288 112.209  77.202  1.00  0.00     0.005 A 
ATOM     15  C   UNL     1     105.004 110.845  77.239  1.00  0.00    -0.051 A 
ATOM     16  C   UNL     1     103.888 110.338  78.090  1.00  0.00     0.044 C 
ENDBRANCH   7  10
ENDBRANCH   1   7
BRANCH   2  17
ATOM     17  C   UNL     1     111.210 111.584  78.961  1.00  0.00     0.155 C 
ATOM     18  N   UNL     1     112.581 112.037  79.191  1.00  0.00    -0.279 NA
ATOM     19  N   UNL     1     110.294 112.618  79.405  1.00  0.00    -0.339 N 
ATOM     20  C   UNL     1     112.891 113.278  78.481  1.00  0.00     0.170 C 
ATOM     21  C   UNL     1     110.474 113.958  79.132  1.00  0.00     0.242 C 
ATOM     22  N   UNL     1     113.892 114.063  79.214  1.00  0.00    -0.207 NA
ATOM     23  C   UNL     1     111.720 114.262  78.317  1.00  0.00     0.193 C 
ATOM     24  O   UNL     1     109.673 114.824  79.480  1.00  0.00    -0.273 OA
ATOM     25  N   UNL     1     113.652 115.411  78.786  1.00  0.00    -0.189 NA
ATOM     26  N   UNL     1     112.232 115.572  78.728  1.00  0.00    -0.228 NA
ATOM     27  H   UNL     1     113.269 111.318  78.983  1.00  0.00     0.126 HD
ATOM     28  H   UNL     1     109.464 112.339  79.920  1.00  0.00     0.165 HD
ATOM     29  H   UNL     1     114.026 115.548  77.846  1.00  0.00     0.161 HD
ATOM     30  H   UNL     1     111.985 116.284  78.042  1.00  0.00     0.144 HD
BRANCH  22  31
ATOM     31  C   UNL     1     115.264 113.680  78.902  1.00  0.00     0.141 C 
BRANCH  31  32
ATOM     32  C   UNL     1     116.222 114.088  79.990  1.00  0.00    -0.032 A 
ATOM     33  C   UNL     1     115.921 115.173  80.814  1.00  0.00     0.005 A 
ATOM     34  C   UNL     1     117.410 113.381  80.175  1.00  0.00     0.005 A 
ATOM     35  C   UNL     1     116.809 115.551  81.822  1.00  0.00     0.000 A 
ATOM     36  C   UNL     1     118.297 113.758  81.183  1.00  0.00     0.000 A 
ATOM     37  C   UNL     1     117.996 114.843  82.007  1.00  0.00     0.000 A 
ENDBRANCH  31  32
ENDBRANCH  22  31
ENDBRANCH   2  17
TORSDOF 5
ENDMDL
MODEL 8
REMARK VINA RESULT:     -10.4      2.920      8.517
REMARK SMILES Cc1ccc(S(=O)(=O)N2CCC[C@@H]([C@@H]3NC(=O)[C@H]4NNN(Cc5ccccc5)[C@H]4N3)C2)cc1
REMARK SMILES IDX 9 1 13 2 12 3 31 4 11 5 10 6 6 7 7 8 8 9 5 10 4 11 32 12
REMARK SMILES IDX 3 13 33 14 2 15 1 16 14 17 30 18 15 19 29 20 16 21 21 22
REMARK SMILES IDX 18 23 17 24 20 25 19 26 22 31 23 32 24 33 28 34 25 35 27 36
REMARK SMILES IDX 26 37
REMARK H PARENT 30 27 15 28 20 29 19 30
ROOT
ATOM      1  N   UNL     1     112.910 113.589  79.383  1.00  0.00    -0.197 NA
ATOM      2  C   UNL     1     110.577 113.093  78.726  1.00  0.00     0.042 C 
ATOM      3  C   UNL     1     110.440 112.165  79.941  1.00  0.00     0.010 C 
ATOM      4  C   UNL     1     111.600 114.200  79.005  1.00  0.00     0.109 C 
ATOM      5  C   UNL     1     111.803 111.616  80.358  1.00  0.00     0.017 C 
ATOM      6  C   UNL     1     112.801 112.740  80.605  1.00  0.00     0.102 C 
ENDROOT
BRANCH   1   7
ATOM      7  S   UNL     1     114.251 114.656  79.351  1.00  0.00     0.243 S 
ATOM      8  O   UNL     1     114.689 114.903  80.707  1.00  0.00    -0.207 OA
ATOM      9  O   UNL     1     113.958 115.750  78.451  1.00  0.00    -0.207 OA
BRANCH   7  10
ATOM     10  C   UNL     1     115.450 113.619  78.575  1.00  0.00     0.082 A 
ATOM     11  C   UNL     1     115.064 112.749  77.555  1.00  0.00     0.022 A 
ATOM     12  C   UNL     1     116.782 113.665  78.985  1.00  0.00     0.022 A 
ATOM     13  C   UNL     1     116.011 111.927  76.944  1.00  0.00     0.005 A 
ATOM     14  C   UNL     1     117.729 112.843  78.374  1.00  0.00     0.005 A 
ATOM     15  C   UNL     1     117.343 111.975  77.353  1.00  0.00    -0.051 A 
ATOM     16  C   UNL     1     118.356 111.095  76.700  1.00  0.00     0.044 C 
ENDBRANCH   7  10
ENDBRANCH   1   7
BRANCH   2  17
ATOM     17  C   UNL     1     109.223 113.692  78.350  1.00  0.00     0.155 C 
ATOM     18  N   UNL     1     108.983 113.742  76.910  1.00  0.00    -0.279 NA
ATOM     19  N   UNL     1     108.114 113.008  78.988  1.00  0.00    -0.339 N 
ATOM     20  C   UNL     1     108.845 112.412  76.315  1.00  0.00     0.170 C 
ATOM     21  C   UNL     1     107.554 111.848  78.493  1.00  0.00     0.242 C 
ATOM     22  N   UNL     1     107.953 112.450  75.149  1.00  0.00    -0.207 NA
ATOM     23  C   UNL     1     108.204 111.342  77.216  1.00  0.00     0.193 C 
ATOM     24  O   UNL     1     106.638 111.253  79.059  1.00  0.00    -0.273 OA
ATOM     25  N   UNL     1     107.446 111.112  75.061  1.00  0.00    -0.189 NA
ATOM     26  N   UNL     1     107.176 110.690  76.401  1.00  0.00    -0.228 NA
ATOM     27  H   UNL     1     109.682 114.290  76.416  1.00  0.00     0.126 HD
ATOM     28  H   UNL     1     107.748 113.386  79.856  1.00  0.00     0.165 HD
ATOM     29  H   UNL     1     108.160 110.495  74.672  1.00  0.00     0.161 HD
ATOM     30  H   UNL     1     107.250 109.677  76.474  1.00  0.00     0.144 HD
BRANCH  22  31
ATOM     31  C   UNL     1     108.639 112.803  73.911  1.00  0.00     0.141 C 
BRANCH  31  32
ATOM     32  C   UNL     1     109.780 111.866  73.615  1.00  0.00    -0.032 A 
ATOM     33  C   UNL     1     110.903 111.850  74.442  1.00  0.00     0.005 A 
ATOM     34  C   UNL     1     109.713 111.013  72.514  1.00  0.00     0.005 A 
ATOM     35  C   UNL     1     111.960 110.982  74.167  1.00  0.00     0.000 A 
ATOM     36  C   UNL     1     110.769 110.143  72.240  1.00  0.00     0.000 A 
ATOM     37  C   UNL     1     111.892 110.128  73.066  1.00  0.00     0.000 A 
ENDBRANCH  31  32
ENDBRANCH  22  31
ENDBRANCH   2  17
TORSDOF 5
ENDMDL
MODEL 9
REMARK VINA RESULT:     -10.3      1.985      2.812
REMARK SMILES Cc1ccc(S(=O)(=O)N2CCC[C@@H]([C@@H]3NC(=O)[C@H]4NNN(Cc5ccccc5)[C@H]4N3)C2)cc1
REMARK SMILES IDX 9 1 13 2 12 3 31 4 11 5 10 6 6 7 7 8 8 9 5 10 4 11 32 12
REMARK SMILES IDX 3 13 33 14 2 15 1 16 14 17 30 18 15 19 29 20 16 21 21 22
REMARK SMILES IDX 18 23 17 24 20 25 19 26 22 31 23 32 24 33 28 34 25 35 27 36
REMARK SMILES IDX 26 37
REMARK H PARENT 30 27 15 28 20 29 19 30
ROOT
ATOM      1  N   UNL     1     110.022 112.740  76.789  1.00  0.00    -0.197 NA
ATOM      2  C   UNL     1     111.096 114.840  77.538  1.00  0.00     0.042 C 
ATOM      3  C   UNL     1     110.026 115.645  76.787  1.00  0.00     0.010 C 
ATOM      4  C   UNL     1     110.538 113.482  77.979  1.00  0.00     0.109 C 
ATOM      5  C   UNL     1     109.457 114.836  75.624  1.00  0.00     0.017 C 
ATOM      6  C   UNL     1     108.933 113.485  76.092  1.00  0.00     0.102 C 
ENDROOT
BRANCH   1   7
ATOM      7  S   UNL     1     109.723 111.072  77.040  1.00  0.00     0.243 S 
ATOM      8  O   UNL     1     110.408 110.646  78.241  1.00  0.00    -0.207 OA
ATOM      9  O   UNL     1     109.904 110.369  75.789  1.00  0.00    -0.207 OA
BRANCH   7  10
ATOM     10  C   UNL     1     107.994 111.120  77.392  1.00  0.00     0.082 A 
ATOM     11  C   UNL     1     107.537 111.733  78.559  1.00  0.00     0.022 A 
ATOM     12  C   UNL     1     107.085 110.541  76.508  1.00  0.00     0.022 A 
ATOM     13  C   UNL     1     106.171 111.769  78.839  1.00  0.00     0.005 A 
ATOM     14  C   UNL     1     105.719 110.576  76.788  1.00  0.00     0.005 A 
ATOM     15  C   UNL     1     105.263 111.190  77.953  1.00  0.00    -0.051 A 
ATOM     16  C   UNL     1     103.802 111.227  78.253  1.00  0.00     0.044 C 
ENDBRANCH   7  10
ENDBRANCH   1   7
BRANCH   2  17
ATOM     17  C   UNL     1     111.616 115.626  78.740  1.00  0.00     0.155 C 
ATOM     18  N   UNL     1     112.776 115.012  79.384  1.00  0.00    -0.279 NA
ATOM     19  N   UNL     1     111.936 117.002  78.411  1.00  0.00    -0.339 N 
ATOM     20  C   UNL     1     113.967 115.029  78.535  1.00  0.00     0.170 C 
ATOM     21  C   UNL     1     113.135 117.387  77.848  1.00  0.00     0.242 C 
ATOM     22  N   UNL     1     115.187 115.100  79.348  1.00  0.00    -0.207 NA
ATOM     23  C   UNL     1     114.098 116.240  77.595  1.00  0.00     0.193 C 
ATOM     24  O   UNL     1     113.384 118.551  77.537  1.00  0.00    -0.273 OA
ATOM     25  N   UNL     1     116.150 115.700  78.471  1.00  0.00    -0.189 NA
ATOM     26  N   UNL     1     115.465 116.738  77.764  1.00  0.00    -0.228 NA
ATOM     27  H   UNL     1     112.583 114.072  79.721  1.00  0.00     0.126 HD
ATOM     28  H   UNL     1     111.232 117.714  78.580  1.00  0.00     0.165 HD
ATOM     29  H   UNL     1     116.475 115.012  77.789  1.00  0.00     0.161 HD
ATOM     30  H   UNL     1     115.903 116.898  76.859  1.00  0.00     0.144 HD
BRANCH  22  31
ATOM     31  C   UNL     1     115.663 113.792  79.786  1.00  0.00     0.141 C 
BRANCH  31  32
ATOM     32  C   UNL     1     116.975 113.889  80.520  1.00  0.00    -0.032 A 
ATOM     33  C   UNL     1     118.004 112.993  80.231  1.00  0.00     0.005 A 
ATOM     34  C   UNL     1     117.161 114.875  81.488  1.00  0.00     0.005 A 
ATOM     35  C   UNL     1     119.219 113.082  80.911  1.00  0.00     0.000 A 
ATOM     36  C   UNL     1     118.376 114.966  82.167  1.00  0.00     0.000 A 
ATOM     37  C   UNL     1     119.405 114.070  81.879  1.00  0.00     0.000 A 
ENDBRANCH  31  32
ENDBRANCH  22  31
ENDBRANCH   2  17
TORSDOF 5
ENDMDL
MODEL 10
REMARK VINA RESULT:     -10.2      2.125      3.349
REMARK SMILES Cc1ccc(S(=O)(=O)N2CCC[C@@H]([C@@H]3NC(=O)[C@H]4NNN(Cc5ccccc5)[C@H]4N3)C2)cc1
REMARK SMILES IDX 9 1 13 2 12 3 31 4 11 5 10 6 6 7 7 8 8 9 5 10 4 11 32 12
REMARK SMILES IDX 3 13 33 14 2 15 1 16 14 17 30 18 15 19 29 20 16 21 21 22
REMARK SMILES IDX 18 23 17 24 20 25 19 26 22 31 23 32 24 33 28 34 25 35 27 36
REMARK SMILES IDX 26 37
REMARK H PARENT 30 27 15 28 20 29 19 30
ROOT
ATOM      1  N   UNL     1     108.959 111.540  76.860  1.00  0.00    -0.197 NA
ATOM      2  C   UNL     1     110.456 111.640  78.828  1.00  0.00     0.042 C 
ATOM      3  C   UNL     1     111.646 111.269  77.931  1.00  0.00     0.010 C 
ATOM      4  C   UNL     1     109.383 112.380  78.021  1.00  0.00     0.109 C 
ATOM      5  C   UNL     1     111.178 110.480  76.710  1.00  0.00     0.017 C 
ATOM      6  C   UNL     1     110.096 111.232  75.946  1.00  0.00     0.102 C 
ENDROOT
BRANCH   1   7
ATOM      7  S   UNL     1     107.513 112.037  76.087  1.00  0.00     0.243 S 
ATOM      8  O   UNL     1     107.223 113.404  76.464  1.00  0.00    -0.207 OA
ATOM      9  O   UNL     1     106.520 110.996  76.236  1.00  0.00    -0.207 OA
BRANCH   7  10
ATOM     10  C   UNL     1     108.049 112.042  74.406  1.00  0.00     0.082 A 
ATOM     11  C   UNL     1     107.809 110.933  73.594  1.00  0.00     0.022 A 
ATOM     12  C   UNL     1     108.717 113.152  73.889  1.00  0.00     0.022 A 
ATOM     13  C   UNL     1     108.235 110.934  72.266  1.00  0.00     0.005 A 
ATOM     14  C   UNL     1     109.144 113.153  72.561  1.00  0.00     0.005 A 
ATOM     15  C   UNL     1     108.902 112.046  71.750  1.00  0.00    -0.051 A 
ATOM     16  C   UNL     1     109.359 112.047  70.330  1.00  0.00     0.044 C 
ENDBRANCH   7  10
ENDBRANCH   1   7
BRANCH   2  17
ATOM     17  C   UNL     1     110.918 112.485  80.013  1.00  0.00     0.155 C 
ATOM     18  N   UNL     1     112.355 112.753  80.018  1.00  0.00    -0.279 NA
ATOM     19  N   UNL     1     110.205 113.744  80.113  1.00  0.00    -0.339 N 
ATOM     20  C   UNL     1     112.770 113.619  78.914  1.00  0.00     0.170 C 
ATOM     21  C   UNL     1     110.547 114.868  79.390  1.00  0.00     0.242 C 
ATOM     22  N   UNL     1     113.937 114.425  79.292  1.00  0.00    -0.207 NA
ATOM     23  C   UNL     1     111.741 114.672  78.470  1.00  0.00     0.193 C 
ATOM     24  O   UNL     1     109.915 115.921  79.451  1.00  0.00    -0.273 OA
ATOM     25  N   UNL     1     113.853 115.573  78.437  1.00  0.00    -0.189 NA
ATOM     26  N   UNL     1     112.471 115.940  78.385  1.00  0.00    -0.228 NA
ATOM     27  H   UNL     1     112.911 111.902  80.042  1.00  0.00     0.126 HD
ATOM     28  H   UNL     1     109.397 113.794  80.726  1.00  0.00     0.165 HD
ATOM     29  H   UNL     1     114.152 115.326  77.492  1.00  0.00     0.161 HD
ATOM     30  H   UNL     1     112.264 116.414  77.507  1.00  0.00     0.144 HD
BRANCH  22  31
ATOM     31  C   UNL     1     115.206 113.737  79.074  1.00  0.00     0.141 C 
BRANCH  31  32
ATOM     32  C   UNL     1     116.233 114.114  80.109  1.00  0.00    -0.032 A 
ATOM     33  C   UNL     1     115.998 115.190  80.966  1.00  0.00     0.005 A 
ATOM     34  C   UNL     1     117.418 113.387  80.212  1.00  0.00     0.005 A 
ATOM     35  C   UNL     1     116.950 115.539  81.924  1.00  0.00     0.000 A 
ATOM     36  C   UNL     1     118.369 113.734  81.171  1.00  0.00     0.000 A 
ATOM     37  C   UNL     1     118.136 114.811  82.027  1.00  0.00     0.000 A 
ENDBRANCH  31  32
ENDBRANCH  22  31
ENDBRANCH   2  17
TORSDOF 5
ENDMDL
MODEL 11
REMARK VINA RESULT:     -10.2      3.477      9.151
REMARK SMILES Cc1ccc(S(=O)(=O)N2CCC[C@@H]([C@@H]3NC(=O)[C@H]4NNN(Cc5ccccc5)[C@H]4N3)C2)cc1
REMARK SMILES IDX 9 1 13 2 12 3 31 4 11 5 10 6 6 7 7 8 8 9 5 10 4 11 32 12
REMARK SMILES IDX 3 13 33 14 2 15 1 16 14 17 30 18 15 19 29 20 16 21 21 22
REMARK SMILES IDX 18 23 17 24 20 25 19 26 22 31 23 32 24 33 28 34 25 35 27 36
REMARK SMILES IDX 26 37
REMARK H PARENT 30 27 15 28 20 29 19 30
ROOT
ATOM      1  N   UNL     1     110.781 113.714  78.779  1.00  0.00    -0.197 NA
ATOM      2  C   UNL     1     109.093 112.909  77.159  1.00  0.00     0.042 C 
ATOM      3  C   UNL     1     108.623 111.864  78.180  1.00  0.00     0.010 C 
ATOM      4  C   UNL     1     109.672 114.137  77.872  1.00  0.00     0.109 C 
ATOM      5  C   UNL     1     109.751 111.507  79.147  1.00  0.00     0.017 C 
ATOM      6  C   UNL     1     110.319 112.749  79.819  1.00  0.00     0.102 C 
ENDROOT
BRANCH   1   7
ATOM      7  S   UNL     1     111.782 114.982  79.351  1.00  0.00     0.243 S 
ATOM      8  O   UNL     1     111.705 115.027  80.795  1.00  0.00    -0.207 OA
ATOM      9  O   UNL     1     111.542 116.165  78.554  1.00  0.00    -0.207 OA
BRANCH   7  10
ATOM     10  C   UNL     1     113.368 114.343  78.914  1.00  0.00     0.082 A 
ATOM     11  C   UNL     1     113.533 112.974  78.698  1.00  0.00     0.022 A 
ATOM     12  C   UNL     1     114.457 115.205  78.787  1.00  0.00     0.022 A 
ATOM     13  C   UNL     1     114.787 112.469  78.356  1.00  0.00     0.005 A 
ATOM     14  C   UNL     1     115.711 114.699  78.444  1.00  0.00     0.005 A 
ATOM     15  C   UNL     1     115.875 113.332  78.228  1.00  0.00    -0.051 A 
ATOM     16  C   UNL     1     117.216 112.790  77.862  1.00  0.00     0.044 C 
ENDBRANCH   7  10
ENDBRANCH   1   7
BRANCH   2  17
ATOM     17  C   UNL     1     107.946 113.313  76.235  1.00  0.00     0.155 C 
ATOM     18  N   UNL     1     108.064 112.773  74.883  1.00  0.00    -0.279 NA
ATOM     19  N   UNL     1     106.645 112.957  76.771  1.00  0.00    -0.339 N 
ATOM     20  C   UNL     1     107.921 111.318  74.842  1.00  0.00     0.170 C 
ATOM     21  C   UNL     1     106.091 111.700  76.640  1.00  0.00     0.242 C 
ATOM     22  N   UNL     1     107.344 110.885  73.564  1.00  0.00    -0.207 NA
ATOM     23  C   UNL     1     106.965 110.713  75.885  1.00  0.00     0.193 C 
ATOM     24  O   UNL     1     105.005 111.395  77.129  1.00  0.00    -0.273 OA
ATOM     25  N   UNL     1     106.723 109.630  73.875  1.00  0.00    -0.189 NA
ATOM     26  N   UNL     1     106.094 109.793  75.150  1.00  0.00    -0.228 NA
ATOM     27  H   UNL     1     108.919 113.068  74.418  1.00  0.00     0.126 HD
ATOM     28  H   UNL     1     106.129 113.659  77.292  1.00  0.00     0.165 HD
ATOM     29  H   UNL     1     107.434 108.902  73.962  1.00  0.00     0.161 HD
ATOM     30  H   UNL     1     106.032 108.897  75.630  1.00  0.00     0.144 HD
BRANCH  22  31
ATOM     31  C   UNL     1     108.342 110.697  72.516  1.00  0.00     0.141 C 
BRANCH  31  32
ATOM     32  C   UNL     1     108.480 111.919  71.647  1.00  0.00    -0.032 A 
ATOM     33  C   UNL     1     107.350 112.489  71.060  1.00  0.00     0.005 A 
ATOM     34  C   UNL     1     109.737 112.482  71.429  1.00  0.00     0.005 A 
ATOM     35  C   UNL     1     107.477 113.621  70.255  1.00  0.00     0.000 A 
ATOM     36  C   UNL     1     109.865 113.615  70.625  1.00  0.00     0.000 A 
ATOM     37  C   UNL     1     108.735 114.184  70.038  1.00  0.00     0.000 A 
ENDBRANCH  31  32
ENDBRANCH  22  31
ENDBRANCH   2  17
TORSDOF 5
ENDMDL
MODEL 12
REMARK VINA RESULT:     -10.2      1.665      2.644
REMARK SMILES Cc1ccc(S(=O)(=O)N2CCC[C@@H]([C@@H]3NC(=O)[C@H]4NNN(Cc5ccccc5)[C@H]4N3)C2)cc1
REMARK SMILES IDX 9 1 13 2 12 3 31 4 11 5 10 6 6 7 7 8 8 9 5 10 4 11 32 12
REMARK SMILES IDX 3 13 33 14 2 15 1 16 14 17 30 18 15 19 29 20 16 21 21 22
REMARK SMILES IDX 18 23 17 24 20 25 19 26 22 31 23 32 24 33 28 34 25 35 27 36
REMARK SMILES IDX 26 37
REMARK H PARENT 30 27 15 28 20 29 19 30
ROOT
ATOM      1  N   UNL     1     108.512 112.357  75.598  1.00  0.00    -0.197 NA
ATOM      2  C   UNL     1     110.802 112.310  76.536  1.00  0.00     0.042 C 
ATOM      3  C   UNL     1     110.613 113.745  77.047  1.00  0.00     0.010 C 
ATOM      4  C   UNL     1     109.454 111.583  76.462  1.00  0.00     0.109 C 
ATOM      5  C   UNL     1     109.587 114.491  76.198  1.00  0.00     0.017 C 
ATOM      6  C   UNL     1     108.269 113.731  76.126  1.00  0.00     0.102 C 
ENDROOT
BRANCH   1   7
ATOM      7  S   UNL     1     107.111 111.507  75.099  1.00  0.00     0.243 S 
ATOM      8  O   UNL     1     107.425 110.099  74.998  1.00  0.00    -0.207 OA
ATOM      9  O   UNL     1     106.500 112.216  73.996  1.00  0.00    -0.207 OA
BRANCH   7  10
ATOM     10  C   UNL     1     106.091 111.733  76.522  1.00  0.00     0.082 A 
ATOM     11  C   UNL     1     106.515 111.263  77.765  1.00  0.00     0.022 A 
ATOM     12  C   UNL     1     104.860 112.376  76.403  1.00  0.00     0.022 A 
ATOM     13  C   UNL     1     105.708 111.438  78.889  1.00  0.00     0.005 A 
ATOM     14  C   UNL     1     104.053 112.552  77.527  1.00  0.00     0.005 A 
ATOM     15  C   UNL     1     104.477 112.083  78.769  1.00  0.00    -0.051 A 
ATOM     16  C   UNL     1     103.614 112.270  79.972  1.00  0.00     0.044 C 
ENDBRANCH   7  10
ENDBRANCH   1   7
BRANCH   2  17
ATOM     17  C   UNL     1     111.779 111.545  77.426  1.00  0.00     0.155 C 
ATOM     18  N   UNL     1     112.876 112.366  77.934  1.00  0.00    -0.279 NA
ATOM     19  N   UNL     1     111.123 110.894  78.545  1.00  0.00    -0.339 N 
ATOM     20  C   UNL     1     112.424 113.390  78.876  1.00  0.00     0.170 C 
ATOM     21  C   UNL     1     110.814 111.542  79.723  1.00  0.00     0.242 C 
ATOM     22  N   UNL     1     113.470 113.692  79.861  1.00  0.00    -0.207 NA
ATOM     23  C   UNL     1     111.216 113.007  79.748  1.00  0.00     0.193 C 
ATOM     24  O   UNL     1     110.224 110.993  80.652  1.00  0.00    -0.273 OA
ATOM     25  N   UNL     1     112.742 114.187  80.994  1.00  0.00    -0.189 NA
ATOM     26  N   UNL     1     111.580 113.362  81.122  1.00  0.00    -0.228 NA
ATOM     27  H   UNL     1     113.433 112.777  77.189  1.00  0.00     0.126 HD
ATOM     28  H   UNL     1     110.855 109.919  78.446  1.00  0.00     0.165 HD
ATOM     29  H   UNL     1     112.434 115.144  80.818  1.00  0.00     0.161 HD
ATOM     30  H   UNL     1     110.827 113.880  81.570  1.00  0.00     0.144 HD
BRANCH  22  31
ATOM     31  C   UNL     1     114.419 114.701  79.403  1.00  0.00     0.141 C 
BRANCH  31  32
ATOM     32  C   UNL     1     115.746 114.583  80.104  1.00  0.00    -0.032 A 
ATOM     33  C   UNL     1     116.654 113.597  79.716  1.00  0.00     0.005 A 
ATOM     34  C   UNL     1     116.068 115.459  81.140  1.00  0.00     0.005 A 
ATOM     35  C   UNL     1     117.884 113.488  80.365  1.00  0.00     0.000 A 
ATOM     36  C   UNL     1     117.298 115.350  81.788  1.00  0.00     0.000 A 
ATOM     37  C   UNL     1     118.206 114.365  81.402  1.00  0.00     0.000 A 
ENDBRANCH  31  32
ENDBRANCH  22  31
ENDBRANCH   2  17
TORSDOF 5
ENDMDL
MODEL 13
REMARK VINA RESULT:     -10.2      2.482      8.968
REMARK SMILES Cc1ccc(S(=O)(=O)N2CCC[C@@H]([C@@H]3NC(=O)[C@H]4NNN(Cc5ccccc5)[C@H]4N3)C2)cc1
REMARK SMILES IDX 9 1 13 2 12 3 31 4 11 5 10 6 6 7 7 8 8 9 5 10 4 11 32 12
REMARK SMILES IDX 3 13 33 14 2 15 1 16 14 17 30 18 15 19 29 20 16 21 21 22
REMARK SMILES IDX 18 23 17 24 20 25 19 26 22 31 23 32 24 33 28 34 25 35 27 36
REMARK SMILES IDX 26 37
REMARK H PARENT 30 27 15 28 20 29 19 30
ROOT
ATOM      1  N   UNL     1     110.914 114.075  79.189  1.00  0.00    -0.197 NA
ATOM      2  C   UNL     1     110.179 113.339  76.943  1.00  0.00     0.042 C 
ATOM      3  C   UNL     1     110.412 114.759  76.410  1.00  0.00     0.010 C 
ATOM      4  C   UNL     1     111.113 113.046  78.123  1.00  0.00     0.109 C 
ATOM      5  C   UNL     1     110.283 115.787  77.533  1.00  0.00     0.017 C 
ATOM      6  C   UNL     1     111.205 115.454  78.697  1.00  0.00     0.102 C 
ENDROOT
BRANCH   1   7
ATOM      7  S   UNL     1     111.585 113.686  80.716  1.00  0.00     0.243 S 
ATOM      8  O   UNL     1     111.156 112.357  81.094  1.00  0.00    -0.207 OA
ATOM      9  O   UNL     1     111.404 114.810  81.608  1.00  0.00    -0.207 OA
BRANCH   7  10
ATOM     10  C   UNL     1     113.295 113.601  80.288  1.00  0.00     0.082 A 
ATOM     11  C   UNL     1     113.834 112.410  79.800  1.00  0.00     0.022 A 
ATOM     12  C   UNL     1     114.110 114.722  80.441  1.00  0.00     0.022 A 
ATOM     13  C   UNL     1     115.186 112.341  79.464  1.00  0.00     0.005 A 
ATOM     14  C   UNL     1     115.462 114.654  80.106  1.00  0.00     0.005 A 
ATOM     15  C   UNL     1     115.999 113.464  79.617  1.00  0.00    -0.051 A 
ATOM     16  C   UNL     1     117.446 113.390  79.258  1.00  0.00     0.044 C 
ENDBRANCH   7  10
ENDBRANCH   1   7
BRANCH   2  17
ATOM     17  C   UNL     1     110.373 112.308  75.834  1.00  0.00     0.155 C 
ATOM     18  N   UNL     1     109.418 111.203  75.886  1.00  0.00    -0.279 NA
ATOM     19  N   UNL     1     110.335 112.899  74.509  1.00  0.00    -0.339 N 
ATOM     20  C   UNL     1     108.048 111.628  75.599  1.00  0.00     0.170 C 
ATOM     21  C   UNL     1     109.162 113.165  73.832  1.00  0.00     0.242 C 
ATOM     22  N   UNL     1     107.284 110.543  74.971  1.00  0.00    -0.207 NA
ATOM     23  C   UNL     1     107.906 112.787  74.598  1.00  0.00     0.193 C 
ATOM     24  O   UNL     1     109.137 113.701  72.726  1.00  0.00    -0.273 OA
ATOM     25  N   UNL     1     106.262 111.226  74.231  1.00  0.00    -0.189 NA
ATOM     26  N   UNL     1     106.886 112.366  73.633  1.00  0.00    -0.228 NA
ATOM     27  H   UNL     1     109.464 110.688  76.762  1.00  0.00     0.126 HD
ATOM     28  H   UNL     1     111.213 113.155  74.069  1.00  0.00     0.165 HD
ATOM     29  H   UNL     1     105.537 111.559  74.868  1.00  0.00     0.161 HD
ATOM     30  H   UNL     1     106.203 113.107  73.488  1.00  0.00     0.144 HD
BRANCH  22  31
ATOM     31  C   UNL     1     106.675 109.634  75.935  1.00  0.00     0.141 C 
BRANCH  31  32
ATOM     32  C   UNL     1     105.958 110.378  77.032  1.00  0.00    -0.032 A 
ATOM     33  C   UNL     1     106.687 111.116  77.965  1.00  0.00     0.005 A 
ATOM     34  C   UNL     1     104.567 110.329  77.114  1.00  0.00     0.005 A 
ATOM     35  C   UNL     1     106.023 111.805  78.981  1.00  0.00     0.000 A 
ATOM     36  C   UNL     1     103.904 111.019  78.128  1.00  0.00     0.000 A 
ATOM     37  C   UNL     1     104.631 111.757  79.062  1.00  0.00     0.000 A 
ENDBRANCH  31  32
ENDBRANCH  22  31
ENDBRANCH   2  17
TORSDOF 5
ENDMDL
MODEL 14
REMARK VINA RESULT:     -10.2      2.162      8.796
REMARK SMILES Cc1ccc(S(=O)(=O)N2CCC[C@@H]([C@@H]3NC(=O)[C@H]4NNN(Cc5ccccc5)[C@H]4N3)C2)cc1
REMARK SMILES IDX 9 1 13 2 12 3 31 4 11 5 10 6 6 7 7 8 8 9 5 10 4 11 32 12
REMARK SMILES IDX 3 13 33 14 2 15 1 16 14 17 30 18 15 19 29 20 16 21 21 22
REMARK SMILES IDX 18 23 17 24 20 25 19 26 22 31 23 32 24 33 28 34 25 35 27 36
REMARK SMILES IDX 26 37
REMARK H PARENT 30 27 15 28 20 29 19 30
ROOT
ATOM      1  N   UNL     1     111.271 113.611  78.674  1.00  0.00    -0.197 NA
ATOM      2  C   UNL     1     111.146 111.527  77.345  1.00  0.00     0.042 C 
ATOM      3  C   UNL     1     110.244 110.905  78.420  1.00  0.00     0.010 C 
ATOM      4  C   UNL     1     110.982 113.051  77.319  1.00  0.00     0.109 C 
ATOM      5  C   UNL     1     110.500 111.549  79.781  1.00  0.00     0.017 C 
ATOM      6  C   UNL     1     110.352 113.063  79.714  1.00  0.00     0.102 C 
ENDROOT
BRANCH   1   7
ATOM      7  S   UNL     1     111.510 115.307  78.729  1.00  0.00     0.243 S 
ATOM      8  O   UNL     1     110.927 115.826  79.947  1.00  0.00    -0.207 OA
ATOM      9  O   UNL     1     111.171 115.871  77.440  1.00  0.00    -0.207 OA
BRANCH   7  10
ATOM     10  C   UNL     1     113.266 115.364  78.902  1.00  0.00     0.082 A 
ATOM     11  C   UNL     1     114.027 116.143  78.031  1.00  0.00     0.022 A 
ATOM     12  C   UNL     1     113.892 114.627  79.907  1.00  0.00     0.022 A 
ATOM     13  C   UNL     1     115.415 116.186  78.166  1.00  0.00     0.005 A 
ATOM     14  C   UNL     1     115.280 114.670  80.041  1.00  0.00     0.005 A 
ATOM     15  C   UNL     1     116.040 115.449  79.172  1.00  0.00    -0.051 A 
ATOM     16  C   UNL     1     117.525 115.495  79.315  1.00  0.00     0.044 C 
ENDBRANCH   7  10
ENDBRANCH   1   7
BRANCH   2  17
ATOM     17  C   UNL     1     110.842 110.928  75.973  1.00  0.00     0.155 C 
ATOM     18  N   UNL     1     109.534 110.282  75.893  1.00  0.00    -0.279 NA
ATOM     19  N   UNL     1     110.951 111.901  74.903  1.00  0.00    -0.339 N 
ATOM     20  C   UNL     1     108.427 111.232  76.005  1.00  0.00     0.170 C 
ATOM     21  C   UNL     1     109.937 112.773  74.565  1.00  0.00     0.242 C 
ATOM     22  N   UNL     1     107.257 110.763  75.253  1.00  0.00    -0.207 NA
ATOM     23  C   UNL     1     108.688 112.630  75.418  1.00  0.00     0.193 C 
ATOM     24  O   UNL     1     110.051 113.620  73.681  1.00  0.00    -0.273 OA
ATOM     25  N   UNL     1     106.541 111.967  74.946  1.00  0.00    -0.189 NA
ATOM     26  N   UNL     1     107.522 112.943  74.586  1.00  0.00    -0.228 NA
ATOM     27  H   UNL     1     109.431 109.523  76.562  1.00  0.00     0.126 HD
ATOM     28  H   UNL     1     111.828 111.962  74.393  1.00  0.00     0.165 HD
ATOM     29  H   UNL     1     106.050 112.301  75.777  1.00  0.00     0.161 HD
ATOM     30  H   UNL     1     107.179 113.880  74.789  1.00  0.00     0.144 HD
BRANCH  22  31
ATOM     31  C   UNL     1     106.404 109.861  76.020  1.00  0.00     0.141 C 
BRANCH  31  32
ATOM     32  C   UNL     1     105.733 110.565  77.170  1.00  0.00    -0.032 A 
ATOM     33  C   UNL     1     106.495 111.305  78.075  1.00  0.00     0.005 A 
ATOM     34  C   UNL     1     104.351 110.479  77.329  1.00  0.00     0.005 A 
ATOM     35  C   UNL     1     105.873 111.957  79.141  1.00  0.00     0.000 A 
ATOM     36  C   UNL     1     103.729 111.132  78.393  1.00  0.00     0.000 A 
ATOM     37  C   UNL     1     104.490 111.871  79.299  1.00  0.00     0.000 A 
ENDBRANCH  31  32
ENDBRANCH  22  31
ENDBRANCH   2  17
TORSDOF 5
ENDMDL
MODEL 15
REMARK VINA RESULT:     -10.2      3.408      9.130
REMARK SMILES Cc1ccc(S(=O)(=O)N2CCC[C@@H]([C@@H]3NC(=O)[C@H]4NNN(Cc5ccccc5)[C@H]4N3)C2)cc1
REMARK SMILES IDX 9 1 13 2 12 3 31 4 11 5 10 6 6 7 7 8 8 9 5 10 4 11 32 12
REMARK SMILES IDX 3 13 33 14 2 15 1 16 14 17 30 18 15 19 29 20 16 21 21 22
REMARK SMILES IDX 18 23 17 24 20 25 19 26 22 31 23 32 24 33 28 34 25 35 27 36
REMARK SMILES IDX 26 37
REMARK H PARENT 30 27 15 28 20 29 19 30
ROOT
ATOM      1  N   UNL     1     113.236 113.937  79.400  1.00  0.00    -0.197 NA
ATOM      2  C   UNL     1     110.984 113.368  78.544  1.00  0.00     0.042 C 
ATOM      3  C   UNL     1     110.590 112.865  79.940  1.00  0.00     0.010 C 
ATOM      4  C   UNL     1     112.055 114.460  78.647  1.00  0.00     0.109 C 
ATOM      5  C   UNL     1     111.822 112.411  80.720  1.00  0.00     0.017 C 
ATOM      6  C   UNL     1     112.874 113.509  80.783  1.00  0.00     0.102 C 
ENDROOT
BRANCH   1   7
ATOM      7  S   UNL     1     114.660 114.881  79.274  1.00  0.00     0.243 S 
ATOM      8  O   UNL     1     115.179 115.129  80.601  1.00  0.00    -0.207 OA
ATOM      9  O   UNL     1     114.422 115.969  78.351  1.00  0.00    -0.207 OA
BRANCH   7  10
ATOM     10  C   UNL     1     115.729 113.720  78.484  1.00  0.00     0.082 A 
ATOM     11  C   UNL     1     115.214 112.823  77.548  1.00  0.00     0.022 A 
ATOM     12  C   UNL     1     117.088 113.696  78.798  1.00  0.00     0.022 A 
ATOM     13  C   UNL     1     116.058 111.903  76.925  1.00  0.00     0.005 A 
ATOM     14  C   UNL     1     117.932 112.776  78.175  1.00  0.00     0.005 A 
ATOM     15  C   UNL     1     117.417 111.881  77.239  1.00  0.00    -0.051 A 
ATOM     16  C   UNL     1     118.319 110.897  76.573  1.00  0.00     0.044 C 
ENDBRANCH   7  10
ENDBRANCH   1   7
BRANCH   2  17
ATOM     17  C   UNL     1     109.760 113.883  77.791  1.00  0.00     0.155 C 
ATOM     18  N   UNL     1     109.675 113.405  76.412  1.00  0.00    -0.279 NA
ATOM     19  N   UNL     1     108.516 113.576  78.471  1.00  0.00    -0.339 N 
ATOM     20  C   UNL     1     109.436 111.964  76.330  1.00  0.00     0.170 C 
ATOM     21  C   UNL     1     107.871 112.362  78.359  1.00  0.00     0.242 C 
ATOM     22  N   UNL     1     108.679 111.629  75.117  1.00  0.00    -0.207 NA
ATOM     23  C   UNL     1     108.580 111.364  77.458  1.00  0.00     0.193 C 
ATOM     24  O   UNL     1     106.836 112.095  78.969  1.00  0.00    -0.273 OA
ATOM     25  N   UNL     1     108.022 110.398  75.452  1.00  0.00    -0.189 NA
ATOM     26  N   UNL     1     107.568 110.533  76.801  1.00  0.00    -0.228 NA
ATOM     27  H   UNL     1     110.483 113.672  75.856  1.00  0.00     0.126 HD
ATOM     28  H   UNL     1     108.113 114.280  79.082  1.00  0.00     0.165 HD
ATOM     29  H   UNL     1     108.691 109.627  75.418  1.00  0.00     0.161 HD
ATOM     30  H   UNL     1     107.509 109.620  77.248  1.00  0.00     0.144 HD
BRANCH  22  31
ATOM     31  C   UNL     1     109.525 111.436  73.945  1.00  0.00     0.141 C 
BRANCH  31  32
ATOM     32  C   UNL     1     109.051 112.250  72.770  1.00  0.00    -0.032 A 
ATOM     33  C   UNL     1     109.963 112.998  72.025  1.00  0.00     0.005 A 
ATOM     34  C   UNL     1     107.699 112.257  72.427  1.00  0.00     0.005 A 
ATOM     35  C   UNL     1     109.523 113.752  70.937  1.00  0.00     0.000 A 
ATOM     36  C   UNL     1     107.259 113.010  71.338  1.00  0.00     0.000 A 
ATOM     37  C   UNL     1     108.171 113.758  70.593  1.00  0.00     0.000 A 
ENDBRANCH  31  32
ENDBRANCH  22  31
ENDBRANCH   2  17
TORSDOF 5
ENDMDL
