MODEL 1
REMARK VINA RESULT:      -7.9      0.000      0.000
REMARK SMILES O=C(Nc1nc2c(s1)CC[C@H]2C(=O)N1CCc2ccccc2C1)c1ccc(Cl)cc1
REMARK SMILES IDX 8 1 5 2 11 3 10 4 9 5 6 6 7 7 4 8 3 9 2 10 1 11 24 13 27 14
REMARK SMILES IDX 26 15 29 16 25 17 30 18 28 19 12 20 13 21 14 22 15 23 23 24
REMARK SMILES IDX 16 25 22 26 17 27 21 28 18 29 20 30 19 31
REMARK H PARENT 3 12
ROOT
ATOM      1  S   UNL     1      95.752 109.289 109.900  1.00  0.00    -0.101 S 
ATOM      2  N   UNL     1      97.504 107.468 110.594  1.00  0.00    -0.224 NA
ATOM      3  C   UNL     1      97.248 107.792 113.143  1.00  0.00     0.129 C 
ATOM      4  C   UNL     1      96.522 109.008 113.823  1.00  0.00     0.026 C 
ATOM      5  C   UNL     1      95.516 109.600 112.774  1.00  0.00     0.050 C 
ATOM      6  C   UNL     1      96.976 108.040 111.712  1.00  0.00     0.069 A 
ATOM      7  C   UNL     1      96.044 109.021 111.524  1.00  0.00     0.031 A 
ATOM      8  C   UNL     1      96.926 108.050 109.556  1.00  0.00     0.190 A 
ENDROOT
BRANCH   8   9
ATOM      9  N   UNL     1      97.140 107.798 108.227  1.00  0.00    -0.298 N 
ATOM     10  C   UNL     1      98.112 106.945 107.680  1.00  0.00     0.257 C 
ATOM     11  O   UNL     1      98.938 106.276 108.291  1.00  0.00    -0.269 OA
ATOM     12  H   UNL     1      96.481 108.269 107.614  1.00  0.00     0.172 HD
BRANCH  10  13
ATOM     13  C   UNL     1      98.100 106.835 106.197  1.00  0.00     0.040 A 
ATOM     14  C   UNL     1      98.078 106.630 103.414  1.00  0.00     0.041 A 
ATOM     15  C   UNL     1      96.956 107.113 104.087  1.00  0.00     0.021 A 
ATOM     16  C   UNL     1      99.211 106.249 104.133  1.00  0.00     0.021 A 
ATOM     17  C   UNL     1      96.966 107.216 105.479  1.00  0.00     0.015 A 
ATOM     18  C   UNL     1      99.222 106.351 105.524  1.00  0.00     0.015 A 
ATOM     19  Cl  UNL     1      98.065 106.503 101.699  1.00  0.00    -0.084 Cl
ENDBRANCH  10  13
ENDBRANCH   8   9
BRANCH   3  20
ATOM     20  C   UNL     1      96.639 106.484 113.585  1.00  0.00     0.232 C 
ATOM     21  O   UNL     1      95.455 106.251 113.330  1.00  0.00    -0.274 OA
BRANCH  20  22
ATOM     22  N   UNL     1      97.486 105.605 114.263  1.00  0.00    -0.337 N 
ATOM     23  C   UNL     1      98.512 106.140 115.158  1.00  0.00     0.124 C 
ATOM     24  C   UNL     1      97.532 104.156 114.021  1.00  0.00     0.155 C 
ATOM     25  C   UNL     1      98.453 105.448 116.515  1.00  0.00     0.057 C 
ATOM     26  C   UNL     1      98.051 103.341 115.182  1.00  0.00    -0.025 A 
ATOM     27  C   UNL     1      98.504 103.951 116.365  1.00  0.00    -0.041 A 
ATOM     28  C   UNL     1      98.089 101.944 115.072  1.00  0.00     0.006 A 
ATOM     29  C   UNL     1      98.958 103.157 117.426  1.00  0.00     0.004 A 
ATOM     30  C   UNL     1      98.555 101.162 116.128  1.00  0.00     0.000 A 
ATOM     31  C   UNL     1      98.986 101.768 117.305  1.00  0.00     0.000 A 
ENDBRANCH  20  22
ENDBRANCH   3  20
TORSDOF 4
ENDMDL
MODEL 2
REMARK VINA RESULT:      -7.9     11.242     12.552
REMARK SMILES O=C(Nc1nc2c(s1)CC[C@H]2C(=O)N1CCc2ccccc2C1)c1ccc(Cl)cc1
REMARK SMILES IDX 8 1 5 2 11 3 10 4 9 5 6 6 7 7 4 8 3 9 2 10 1 11 24 13 27 14
REMARK SMILES IDX 26 15 29 16 25 17 30 18 28 19 12 20 13 21 14 22 15 23 23 24
REMARK SMILES IDX 16 25 22 26 17 27 21 28 18 29 20 30 19 31
REMARK H PARENT 3 12
ROOT
ATOM      1  S   UNL     1      97.794  94.460 109.540  1.00  0.00    -0.101 S 
ATOM      2  N   UNL     1     100.203  95.267 110.179  1.00  0.00    -0.224 NA
ATOM      3  C   UNL     1      99.580  96.187 112.510  1.00  0.00     0.129 C 
ATOM      4  C   UNL     1      98.112  96.437 113.011  1.00  0.00     0.026 C 
ATOM      5  C   UNL     1      97.164  95.512 112.168  1.00  0.00     0.050 C 
ATOM      6  C   UNL     1      99.346  95.541 111.202  1.00  0.00     0.069 A 
ATOM      7  C   UNL     1      98.039  95.186 111.026  1.00  0.00     0.031 A 
ATOM      8  C   UNL     1      99.491  94.684 109.228  1.00  0.00     0.190 A 
ENDROOT
BRANCH   8   9
ATOM      9  N   UNL     1      99.930  94.230 108.012  1.00  0.00    -0.298 N 
ATOM     10  C   UNL     1      99.676  94.809 106.759  1.00  0.00     0.257 C 
ATOM     11  O   UNL     1      99.020  95.819 106.528  1.00  0.00    -0.269 OA
ATOM     12  H   UNL     1     100.526  93.411 108.077  1.00  0.00     0.172 HD
BRANCH  10  13
ATOM     13  C   UNL     1     100.305  94.120 105.600  1.00  0.00     0.040 A 
ATOM     14  C   UNL     1     101.484  92.828 103.427  1.00  0.00     0.041 A 
ATOM     15  C   UNL     1     100.138  93.189 103.377  1.00  0.00     0.021 A 
ATOM     16  C   UNL     1     102.241  93.113 104.564  1.00  0.00     0.021 A 
ATOM     17  C   UNL     1      99.548  93.835 104.464  1.00  0.00     0.015 A 
ATOM     18  C   UNL     1     101.651  93.758 105.650  1.00  0.00     0.015 A 
ATOM     19  Cl  UNL     1     102.212  92.032 102.086  1.00  0.00    -0.084 Cl
ENDBRANCH  10  13
ENDBRANCH   8   9
BRANCH   3  20
ATOM     20  C   UNL     1     100.317  95.257 113.442  1.00  0.00     0.232 C 
ATOM     21  O   UNL     1      99.680  94.579 114.251  1.00  0.00    -0.274 OA
BRANCH  20  22
ATOM     22  N   UNL     1     101.707  95.226 113.312  1.00  0.00    -0.337 N 
ATOM     23  C   UNL     1     102.410  93.945 113.388  1.00  0.00     0.124 C 
ATOM     24  C   UNL     1     102.556  96.425 113.262  1.00  0.00     0.155 C 
ATOM     25  C   UNL     1     103.360  93.783 112.208  1.00  0.00     0.057 C 
ATOM     26  C   UNL     1     103.885  96.226 112.573  1.00  0.00    -0.025 A 
ATOM     27  C   UNL     1     104.279  94.969 112.082  1.00  0.00    -0.041 A 
ATOM     28  C   UNL     1     104.748  97.321 112.427  1.00  0.00     0.006 A 
ATOM     29  C   UNL     1     105.512  94.833 111.430  1.00  0.00     0.004 A 
ATOM     30  C   UNL     1     105.979  97.174 111.789  1.00  0.00     0.000 A 
ATOM     31  C   UNL     1     106.360  95.932 111.289  1.00  0.00     0.000 A 
ENDBRANCH  20  22
ENDBRANCH   3  20
TORSDOF 4
ENDMDL
MODEL 3
REMARK VINA RESULT:      -7.7     12.364     13.623
REMARK SMILES O=C(Nc1nc2c(s1)CC[C@H]2C(=O)N1CCc2ccccc2C1)c1ccc(Cl)cc1
REMARK SMILES IDX 8 1 5 2 11 3 10 4 9 5 6 6 7 7 4 8 3 9 2 10 1 11 24 13 27 14
REMARK SMILES IDX 26 15 29 16 25 17 30 18 28 19 12 20 13 21 14 22 15 23 23 24
REMARK SMILES IDX 16 25 22 26 17 27 21 28 18 29 20 30 19 31
REMARK H PARENT 3 12
ROOT
ATOM      1  S   UNL     1      98.422  93.359 109.848  1.00  0.00    -0.101 S 
ATOM      2  N   UNL     1     100.866  94.187 110.303  1.00  0.00    -0.224 NA
ATOM      3  C   UNL     1     100.532  94.674 112.817  1.00  0.00     0.129 C 
ATOM      4  C   UNL     1      99.138  94.755 113.536  1.00  0.00     0.026 C 
ATOM      5  C   UNL     1      98.118  93.928 112.676  1.00  0.00     0.050 C 
ATOM      6  C   UNL     1     100.146  94.239 111.459  1.00  0.00     0.069 A 
ATOM      7  C   UNL     1      98.841  93.844 111.392  1.00  0.00     0.031 A 
ATOM      8  C   UNL     1     100.053  93.728 109.365  1.00  0.00     0.190 A 
ENDROOT
BRANCH   8   9
ATOM      9  N   UNL     1     100.339  93.505 108.044  1.00  0.00    -0.298 N 
ATOM     10  C   UNL     1     100.111  94.387 106.976  1.00  0.00     0.257 C 
ATOM     11  O   UNL     1      99.618  95.508 107.033  1.00  0.00    -0.269 OA
ATOM     12  H   UNL     1     100.794  92.614 107.873  1.00  0.00     0.172 HD
BRANCH  10  13
ATOM     13  C   UNL     1     100.548  93.897 105.641  1.00  0.00     0.040 A 
ATOM     14  C   UNL     1     101.369  92.976 103.139  1.00  0.00     0.041 A 
ATOM     15  C   UNL     1     102.290  93.078 104.181  1.00  0.00     0.021 A 
ATOM     16  C   UNL     1     100.037  93.334 103.348  1.00  0.00     0.021 A 
ATOM     17  C   UNL     1     101.880  93.539 105.433  1.00  0.00     0.015 A 
ATOM     18  C   UNL     1      99.626  93.794 104.599  1.00  0.00     0.015 A 
ATOM     19  Cl  UNL     1     101.874  92.407 101.596  1.00  0.00    -0.084 Cl
ENDBRANCH  10  13
ENDBRANCH   8   9
BRANCH   3  20
ATOM     20  C   UNL     1     101.421  93.648 113.475  1.00  0.00     0.232 C 
ATOM     21  O   UNL     1     100.931  92.590 113.875  1.00  0.00    -0.274 OA
BRANCH  20  22
ATOM     22  N   UNL     1     102.774  93.977 113.579  1.00  0.00    -0.337 N 
ATOM     23  C   UNL     1     103.308  94.433 114.863  1.00  0.00     0.124 C 
ATOM     24  C   UNL     1     103.693  94.056 112.434  1.00  0.00     0.155 C 
ATOM     25  C   UNL     1     104.563  93.651 115.230  1.00  0.00     0.057 C 
ATOM     26  C   UNL     1     105.149  93.861 112.783  1.00  0.00    -0.025 A 
ATOM     27  C   UNL     1     105.571  93.683 114.112  1.00  0.00    -0.041 A 
ATOM     28  C   UNL     1     106.103  93.868 111.756  1.00  0.00     0.006 A 
ATOM     29  C   UNL     1     106.930  93.485 114.389  1.00  0.00     0.004 A 
ATOM     30  C   UNL     1     107.456  93.684 112.042  1.00  0.00     0.000 A 
ATOM     31  C   UNL     1     107.868  93.490 113.358  1.00  0.00     0.000 A 
ENDBRANCH  20  22
ENDBRANCH   3  20
TORSDOF 4
ENDMDL
MODEL 4
REMARK VINA RESULT:      -7.6     11.315     12.637
REMARK SMILES O=C(Nc1nc2c(s1)CC[C@H]2C(=O)N1CCc2ccccc2C1)c1ccc(Cl)cc1
REMARK SMILES IDX 8 1 5 2 11 3 10 4 9 5 6 6 7 7 4 8 3 9 2 10 1 11 24 13 27 14
REMARK SMILES IDX 26 15 29 16 25 17 30 18 28 19 12 20 13 21 14 22 15 23 23 24
REMARK SMILES IDX 16 25 22 26 17 27 21 28 18 29 20 30 19 31
REMARK H PARENT 3 12
ROOT
ATOM      1  S   UNL     1      98.055  94.105 109.703  1.00  0.00    -0.101 S 
ATOM      2  N   UNL     1     100.313  95.387 110.051  1.00  0.00    -0.224 NA
ATOM      3  C   UNL     1      99.756  96.300 112.402  1.00  0.00     0.129 C 
ATOM      4  C   UNL     1      98.325  96.296 113.048  1.00  0.00     0.026 C 
ATOM      5  C   UNL     1      97.496  95.163 112.345  1.00  0.00     0.050 C 
ATOM      6  C   UNL     1      99.524  95.550 111.150  1.00  0.00     0.069 A 
ATOM      7  C   UNL     1      98.300  94.945 111.127  1.00  0.00     0.031 A 
ATOM      8  C   UNL     1      99.638  94.629 109.203  1.00  0.00     0.190 A 
ENDROOT
BRANCH   8   9
ATOM      9  N   UNL     1     100.034  94.199 107.964  1.00  0.00    -0.298 N 
ATOM     10  C   UNL     1      99.666  94.752 106.727  1.00  0.00     0.257 C 
ATOM     11  O   UNL     1      98.929  95.712 106.534  1.00  0.00    -0.269 OA
ATOM     12  H   UNL     1     100.689  93.424 107.994  1.00  0.00     0.172 HD
BRANCH  10  13
ATOM     13  C   UNL     1     100.272  94.101 105.534  1.00  0.00     0.040 A 
ATOM     14  C   UNL     1     101.408  92.882 103.296  1.00  0.00     0.041 A 
ATOM     15  C   UNL     1     100.062  93.251 103.282  1.00  0.00     0.021 A 
ATOM     16  C   UNL     1     102.185  93.123 104.429  1.00  0.00     0.021 A 
ATOM     17  C   UNL     1      99.494  93.861 104.401  1.00  0.00     0.015 A 
ATOM     18  C   UNL     1     101.617  93.732 105.548  1.00  0.00     0.015 A 
ATOM     19  Cl  UNL     1     102.108  92.131 101.916  1.00  0.00    -0.084 Cl
ENDBRANCH  10  13
ENDBRANCH   8   9
BRANCH   3  20
ATOM     20  C   UNL     1     100.748  95.579 113.281  1.00  0.00     0.232 C 
ATOM     21  O   UNL     1     100.359  95.045 114.321  1.00  0.00    -0.274 OA
BRANCH  20  22
ATOM     22  N   UNL     1     102.072  95.564 112.836  1.00  0.00    -0.337 N 
ATOM     23  C   UNL     1     102.747  96.827 112.538  1.00  0.00     0.124 C 
ATOM     24  C   UNL     1     102.807  94.340 112.482  1.00  0.00     0.155 C 
ATOM     25  C   UNL     1     104.100  96.889 113.237  1.00  0.00     0.057 C 
ATOM     26  C   UNL     1     104.309  94.460 112.580  1.00  0.00    -0.025 A 
ATOM     27  C   UNL     1     104.931  95.673 112.924  1.00  0.00    -0.041 A 
ATOM     28  C   UNL     1     105.101  93.335 112.312  1.00  0.00     0.006 A 
ATOM     29  C   UNL     1     106.326  95.734 113.024  1.00  0.00     0.004 A 
ATOM     30  C   UNL     1     106.491  93.408 112.401  1.00  0.00     0.000 A 
ATOM     31  C   UNL     1     107.103  94.607 112.759  1.00  0.00     0.000 A 
ENDBRANCH  20  22
ENDBRANCH   3  20
TORSDOF 4
ENDMDL
MODEL 5
REMARK VINA RESULT:      -7.5     10.823     12.442
REMARK SMILES O=C(Nc1nc2c(s1)CC[C@H]2C(=O)N1CCc2ccccc2C1)c1ccc(Cl)cc1
REMARK SMILES IDX 8 1 5 2 11 3 10 4 9 5 6 6 7 7 4 8 3 9 2 10 1 11 24 13 27 14
REMARK SMILES IDX 26 15 29 16 25 17 30 18 28 19 12 20 13 21 14 22 15 23 23 24
REMARK SMILES IDX 16 25 22 26 17 27 21 28 18 29 20 30 19 31
REMARK H PARENT 3 12
ROOT
ATOM      1  S   UNL     1      98.266  96.063 111.308  1.00  0.00    -0.101 S 
ATOM      2  N   UNL     1     100.880  96.176 111.178  1.00  0.00    -0.224 NA
ATOM      3  C   UNL     1     101.257  96.769 113.663  1.00  0.00     0.129 C 
ATOM      4  C   UNL     1     100.133  97.246 114.650  1.00  0.00     0.026 C 
ATOM      5  C   UNL     1      98.762  96.729 114.087  1.00  0.00     0.050 C 
ATOM      6  C   UNL     1     100.477  96.443 112.452  1.00  0.00     0.069 A 
ATOM      7  C   UNL     1      99.132  96.430 112.690  1.00  0.00     0.031 A 
ATOM      8  C   UNL     1      99.786  95.953 110.468  1.00  0.00     0.190 A 
ENDROOT
BRANCH   8   9
ATOM      9  N   UNL     1      99.699  95.643 109.136  1.00  0.00    -0.298 N 
ATOM     10  C   UNL     1      99.833  94.370 108.560  1.00  0.00     0.257 C 
ATOM     11  O   UNL     1     100.049  93.312 109.142  1.00  0.00    -0.269 OA
ATOM     12  H   UNL     1      99.478  96.441 108.549  1.00  0.00     0.172 HD
BRANCH  10  13
ATOM     13  C   UNL     1      99.661  94.318 107.083  1.00  0.00     0.040 A 
ATOM     14  C   UNL     1      99.339  94.223 104.314  1.00  0.00     0.041 A 
ATOM     15  C   UNL     1      98.263  94.574 105.129  1.00  0.00     0.021 A 
ATOM     16  C   UNL     1     100.575  93.919 104.883  1.00  0.00     0.021 A 
ATOM     17  C   UNL     1      98.424  94.622 106.515  1.00  0.00     0.015 A 
ATOM     18  C   UNL     1     100.737  93.967 106.268  1.00  0.00     0.015 A 
ATOM     19  Cl  UNL     1      99.140  94.165 102.606  1.00  0.00    -0.084 Cl
ENDBRANCH  10  13
ENDBRANCH   8   9
BRANCH   3  20
ATOM     20  C   UNL     1     101.957  95.542 114.194  1.00  0.00     0.232 C 
ATOM     21  O   UNL     1     101.302  94.677 114.780  1.00  0.00    -0.274 OA
BRANCH  20  22
ATOM     22  N   UNL     1     103.334  95.470 113.970  1.00  0.00    -0.337 N 
ATOM     23  C   UNL     1     104.259  95.830 115.045  1.00  0.00     0.124 C 
ATOM     24  C   UNL     1     103.942  95.206 112.658  1.00  0.00     0.155 C 
ATOM     25  C   UNL     1     105.307  94.742 115.238  1.00  0.00     0.057 C 
ATOM     26  C   UNL     1     105.332  94.620 112.716  1.00  0.00    -0.025 A 
ATOM     27  C   UNL     1     105.993  94.410 113.939  1.00  0.00    -0.041 A 
ATOM     28  C   UNL     1     105.982  94.285 111.520  1.00  0.00     0.006 A 
ATOM     29  C   UNL     1     107.273  93.843 113.949  1.00  0.00     0.004 A 
ATOM     30  C   UNL     1     107.263  93.734 111.538  1.00  0.00     0.000 A 
ATOM     31  C   UNL     1     107.907  93.511 112.752  1.00  0.00     0.000 A 
ENDBRANCH  20  22
ENDBRANCH   3  20
TORSDOF 4
ENDMDL
MODEL 6
REMARK VINA RESULT:      -7.5     12.163     15.560
REMARK SMILES O=C(Nc1nc2c(s1)CC[C@H]2C(=O)N1CCc2ccccc2C1)c1ccc(Cl)cc1
REMARK SMILES IDX 8 1 5 2 11 3 10 4 9 5 6 6 7 7 4 8 3 9 2 10 1 11 24 13 27 14
REMARK SMILES IDX 26 15 29 16 25 17 30 18 28 19 12 20 13 21 14 22 15 23 23 24
REMARK SMILES IDX 16 25 22 26 17 27 21 28 18 29 20 30 19 31
REMARK H PARENT 3 12
ROOT
ATOM      1  S   UNL     1     100.436  95.892 112.158  1.00  0.00    -0.101 S 
ATOM      2  N   UNL     1     100.523  93.953 110.398  1.00  0.00    -0.224 NA
ATOM      3  C   UNL     1      98.104  94.246 109.541  1.00  0.00     0.129 C 
ATOM      4  C   UNL     1      96.998  95.101 110.257  1.00  0.00     0.026 C 
ATOM      5  C   UNL     1      97.731  96.165 111.149  1.00  0.00     0.050 C 
ATOM      6  C   UNL     1      99.294  94.541 110.365  1.00  0.00     0.069 A 
ATOM      7  C   UNL     1      99.081  95.575 111.233  1.00  0.00     0.031 A 
ATOM      8  C   UNL     1     101.229  94.589 111.318  1.00  0.00     0.190 A 
ENDROOT
BRANCH   8   9
ATOM      9  N   UNL     1     102.522  94.347 111.699  1.00  0.00    -0.298 N 
ATOM     10  C   UNL     1     102.947  93.519 112.750  1.00  0.00     0.257 C 
ATOM     11  O   UNL     1     102.241  92.869 113.513  1.00  0.00    -0.269 OA
ATOM     12  H   UNL     1     103.211  94.804 111.108  1.00  0.00     0.172 HD
BRANCH  10  13
ATOM     13  C   UNL     1     104.421  93.414 112.922  1.00  0.00     0.040 A 
ATOM     14  C   UNL     1     107.185  93.215 113.243  1.00  0.00     0.041 A 
ATOM     15  C   UNL     1     106.331  92.674 114.203  1.00  0.00     0.021 A 
ATOM     16  C   UNL     1     106.657  93.856 112.122  1.00  0.00     0.021 A 
ATOM     17  C   UNL     1     104.948  92.773 114.043  1.00  0.00     0.015 A 
ATOM     18  C   UNL     1     105.276  93.955 111.961  1.00  0.00     0.015 A 
ATOM     19  Cl  UNL     1     108.890  93.092 113.440  1.00  0.00    -0.084 Cl
ENDBRANCH  10  13
ENDBRANCH   8   9
BRANCH   3  20
ATOM     20  C   UNL     1      98.310  94.709 108.120  1.00  0.00     0.232 C 
ATOM     21  O   UNL     1      97.854  95.799 107.767  1.00  0.00    -0.274 OA
BRANCH  20  22
ATOM     22  N   UNL     1      99.026  93.847 107.287  1.00  0.00    -0.337 N 
ATOM     23  C   UNL     1      98.465  92.540 106.947  1.00  0.00     0.124 C 
ATOM     24  C   UNL     1     100.406  94.092 106.841  1.00  0.00     0.155 C 
ATOM     25  C   UNL     1      98.505  92.314 105.441  1.00  0.00     0.057 C 
ATOM     26  C   UNL     1     100.784  93.395 105.556  1.00  0.00    -0.025 A 
ATOM     27  C   UNL     1      99.890  92.536 104.894  1.00  0.00    -0.041 A 
ATOM     28  C   UNL     1     102.062  93.602 105.018  1.00  0.00     0.006 A 
ATOM     29  C   UNL     1     100.274  91.925 103.693  1.00  0.00     0.004 A 
ATOM     30  C   UNL     1     102.441  92.979 103.830  1.00  0.00     0.000 A 
ATOM     31  C   UNL     1     101.547  92.144 103.166  1.00  0.00     0.000 A 
ENDBRANCH  20  22
ENDBRANCH   3  20
TORSDOF 4
ENDMDL
MODEL 7
REMARK VINA RESULT:      -7.4     11.903     15.182
REMARK SMILES O=C(Nc1nc2c(s1)CC[C@H]2C(=O)N1CCc2ccccc2C1)c1ccc(Cl)cc1
REMARK SMILES IDX 8 1 5 2 11 3 10 4 9 5 6 6 7 7 4 8 3 9 2 10 1 11 24 13 27 14
REMARK SMILES IDX 26 15 29 16 25 17 30 18 28 19 12 20 13 21 14 22 15 23 23 24
REMARK SMILES IDX 16 25 22 26 17 27 21 28 18 29 20 30 19 31
REMARK H PARENT 3 12
ROOT
ATOM      1  S   UNL     1     100.597  95.924 112.409  1.00  0.00    -0.101 S 
ATOM      2  N   UNL     1     100.569  93.967 110.667  1.00  0.00    -0.224 NA
ATOM      3  C   UNL     1      98.112  94.281 109.935  1.00  0.00     0.129 C 
ATOM      4  C   UNL     1      97.055  95.156 110.699  1.00  0.00     0.026 C 
ATOM      5  C   UNL     1      97.846  96.220 111.540  1.00  0.00     0.050 C 
ATOM      6  C   UNL     1      99.347  94.570 110.693  1.00  0.00     0.069 A 
ATOM      7  C   UNL     1      99.191  95.614 111.559  1.00  0.00     0.031 A 
ATOM      8  C   UNL     1     101.329  94.604 111.543  1.00  0.00     0.190 A 
ENDROOT
BRANCH   8   9
ATOM      9  N   UNL     1     102.638  94.350 111.857  1.00  0.00    -0.298 N 
ATOM     10  C   UNL     1     103.628  95.298 112.159  1.00  0.00     0.257 C 
ATOM     11  O   UNL     1     103.500  96.517 112.195  1.00  0.00    -0.269 OA
ATOM     12  H   UNL     1     102.859  93.360 111.901  1.00  0.00     0.172 HD
BRANCH  10  13
ATOM     13  C   UNL     1     104.964  94.738 112.496  1.00  0.00     0.040 A 
ATOM     14  C   UNL     1     107.470  93.686 113.129  1.00  0.00     0.041 A 
ATOM     15  C   UNL     1     106.640  94.169 114.142  1.00  0.00     0.021 A 
ATOM     16  C   UNL     1     107.046  93.730 111.801  1.00  0.00     0.021 A 
ATOM     17  C   UNL     1     105.387  94.695 113.825  1.00  0.00     0.015 A 
ATOM     18  C   UNL     1     105.794  94.256 111.484  1.00  0.00     0.015 A 
ATOM     19  Cl  UNL     1     109.014  93.037 113.519  1.00  0.00    -0.084 Cl
ENDBRANCH  10  13
ENDBRANCH   8   9
BRANCH   3  20
ATOM     20  C   UNL     1      98.248  94.727 108.500  1.00  0.00     0.232 C 
ATOM     21  O   UNL     1      97.741  95.794 108.148  1.00  0.00    -0.274 OA
BRANCH  20  22
ATOM     22  N   UNL     1      98.964  93.878 107.654  1.00  0.00    -0.337 N 
ATOM     23  C   UNL     1      98.445  92.540 107.368  1.00  0.00     0.124 C 
ATOM     24  C   UNL     1     100.310  94.171 107.140  1.00  0.00     0.155 C 
ATOM     25  C   UNL     1      98.428  92.281 105.867  1.00  0.00     0.057 C 
ATOM     26  C   UNL     1     100.661  93.460 105.855  1.00  0.00    -0.025 A 
ATOM     27  C   UNL     1      99.776  92.549 105.252  1.00  0.00    -0.041 A 
ATOM     28  C   UNL     1     101.903  93.710 105.255  1.00  0.00     0.006 A 
ATOM     29  C   UNL     1     100.132  91.928 104.049  1.00  0.00     0.004 A 
ATOM     30  C   UNL     1     102.256  93.076 104.064  1.00  0.00     0.000 A 
ATOM     31  C   UNL     1     101.370  92.188 103.460  1.00  0.00     0.000 A 
ENDBRANCH  20  22
ENDBRANCH   3  20
TORSDOF 4
ENDMDL
MODEL 8
REMARK VINA RESULT:      -7.4     11.428     12.800
REMARK SMILES O=C(Nc1nc2c(s1)CC[C@H]2C(=O)N1CCc2ccccc2C1)c1ccc(Cl)cc1
REMARK SMILES IDX 8 1 5 2 11 3 10 4 9 5 6 6 7 7 4 8 3 9 2 10 1 11 24 13 27 14
REMARK SMILES IDX 26 15 29 16 25 17 30 18 28 19 12 20 13 21 14 22 15 23 23 24
REMARK SMILES IDX 16 25 22 26 17 27 21 28 18 29 20 30 19 31
REMARK H PARENT 3 12
ROOT
ATOM      1  S   UNL     1      97.635  94.787 108.006  1.00  0.00    -0.101 S 
ATOM      2  N   UNL     1     100.102  95.293 108.730  1.00  0.00    -0.224 NA
ATOM      3  C   UNL     1      99.537  96.044 111.136  1.00  0.00     0.129 C 
ATOM      4  C   UNL     1      98.094  96.387 111.652  1.00  0.00     0.026 C 
ATOM      5  C   UNL     1      97.073  95.642 110.720  1.00  0.00     0.050 C 
ATOM      6  C   UNL     1      99.261  95.550 109.771  1.00  0.00     0.069 A 
ATOM      7  C   UNL     1      97.928  95.342 109.556  1.00  0.00     0.031 A 
ATOM      8  C   UNL     1      99.350  94.874 107.725  1.00  0.00     0.190 A 
ENDROOT
BRANCH   8   9
ATOM      9  N   UNL     1      99.760  94.497 106.473  1.00  0.00    -0.298 N 
ATOM     10  C   UNL     1     100.278  93.247 106.101  1.00  0.00     0.257 C 
ATOM     11  O   UNL     1     100.456  92.273 106.824  1.00  0.00    -0.269 OA
ATOM     12  H   UNL     1      99.621  95.214 105.768  1.00  0.00     0.172 HD
BRANCH  10  13
ATOM     13  C   UNL     1     100.615  93.101 104.659  1.00  0.00     0.040 A 
ATOM     14  C   UNL     1     101.246  92.827 101.955  1.00  0.00     0.041 A 
ATOM     15  C   UNL     1     102.237  92.662 102.923  1.00  0.00     0.021 A 
ATOM     16  C   UNL     1      99.940  93.129 102.340  1.00  0.00     0.021 A 
ATOM     17  C   UNL     1     101.921  92.799 104.276  1.00  0.00     0.015 A 
ATOM     18  C   UNL     1      99.624  93.266 103.691  1.00  0.00     0.015 A 
ATOM     19  Cl  UNL     1     101.635  92.658 100.288  1.00  0.00    -0.084 Cl
ENDBRANCH  10  13
ENDBRANCH   8   9
BRANCH   3  20
ATOM     20  C   UNL     1     100.170  94.964 111.978  1.00  0.00     0.232 C 
ATOM     21  O   UNL     1      99.510  93.966 112.277  1.00  0.00    -0.274 OA
BRANCH  20  22
ATOM     22  N   UNL     1     101.495  95.175 112.362  1.00  0.00    -0.337 N 
ATOM     23  C   UNL     1     102.290  94.052 112.858  1.00  0.00     0.124 C 
ATOM     24  C   UNL     1     102.123  96.501 112.458  1.00  0.00     0.155 C 
ATOM     25  C   UNL     1     103.627  93.978 112.132  1.00  0.00     0.057 C 
ATOM     26  C   UNL     1     103.627  96.496 112.327  1.00  0.00    -0.025 A 
ATOM     27  C   UNL     1     104.350  95.298 112.186  1.00  0.00    -0.041 A 
ATOM     28  C   UNL     1     104.318  97.715 112.355  1.00  0.00     0.006 A 
ATOM     29  C   UNL     1     105.743  95.339 112.046  1.00  0.00     0.004 A 
ATOM     30  C   UNL     1     105.707  97.746 112.229  1.00  0.00     0.000 A 
ATOM     31  C   UNL     1     106.418  96.560 112.071  1.00  0.00     0.000 A 
ENDBRANCH  20  22
ENDBRANCH   3  20
TORSDOF 4
ENDMDL
MODEL 9
REMARK VINA RESULT:      -7.1     13.341     15.914
REMARK SMILES O=C(Nc1nc2c(s1)CC[C@H]2C(=O)N1CCc2ccccc2C1)c1ccc(Cl)cc1
REMARK SMILES IDX 8 1 5 2 11 3 10 4 9 5 6 6 7 7 4 8 3 9 2 10 1 11 24 13 27 14
REMARK SMILES IDX 26 15 29 16 25 17 30 18 28 19 12 20 13 21 14 22 15 23 23 24
REMARK SMILES IDX 16 25 22 26 17 27 21 28 18 29 20 30 19 31
REMARK H PARENT 3 12
ROOT
ATOM      1  S   UNL     1      99.155  93.143 111.810  1.00  0.00    -0.101 S 
ATOM      2  N   UNL     1     100.156  92.858 109.405  1.00  0.00    -0.224 NA
ATOM      3  C   UNL     1      97.890  92.675 108.180  1.00  0.00     0.129 C 
ATOM      4  C   UNL     1      96.507  92.438 108.886  1.00  0.00     0.026 C 
ATOM      5  C   UNL     1      96.647  92.930 110.370  1.00  0.00     0.050 C 
ATOM      6  C   UNL     1      98.796  92.835 109.337  1.00  0.00     0.069 A 
ATOM      7  C   UNL     1      98.115  92.967 110.513  1.00  0.00     0.031 A 
ATOM      8  C   UNL     1     100.473  93.021 110.680  1.00  0.00     0.190 A 
ENDROOT
BRANCH   8   9
ATOM      9  N   UNL     1     101.726  93.105 111.228  1.00  0.00    -0.298 N 
ATOM     10  C   UNL     1     102.364  94.267 111.691  1.00  0.00     0.257 C 
ATOM     11  O   UNL     1     101.917  95.408 111.688  1.00  0.00    -0.269 OA
ATOM     12  H   UNL     1     102.187  92.206 111.323  1.00  0.00     0.172 HD
BRANCH  10  13
ATOM     13  C   UNL     1     103.718  94.061 112.270  1.00  0.00     0.040 A 
ATOM     14  C   UNL     1     106.259  93.677 113.356  1.00  0.00     0.041 A 
ATOM     15  C   UNL     1     105.937  94.891 112.749  1.00  0.00     0.021 A 
ATOM     16  C   UNL     1     105.311  92.655 113.420  1.00  0.00     0.021 A 
ATOM     17  C   UNL     1     104.666  95.083 112.205  1.00  0.00     0.015 A 
ATOM     18  C   UNL     1     104.041  92.847 112.877  1.00  0.00     0.015 A 
ATOM     19  Cl  UNL     1     107.826  93.440 114.026  1.00  0.00    -0.084 Cl
ENDBRANCH  10  13
ENDBRANCH   8   9
BRANCH   3  20
ATOM     20  C   UNL     1      97.862  93.932 107.345  1.00  0.00     0.232 C 
ATOM     21  O   UNL     1      97.051  94.820 107.616  1.00  0.00    -0.274 OA
BRANCH  20  22
ATOM     22  N   UNL     1      98.788  94.002 106.302  1.00  0.00    -0.337 N 
ATOM     23  C   UNL     1     100.064  94.683 106.514  1.00  0.00     0.124 C 
ATOM     24  C   UNL     1      98.508  93.572 104.924  1.00  0.00     0.155 C 
ATOM     25  C   UNL     1     101.224  93.802 106.067  1.00  0.00     0.057 C 
ATOM     26  C   UNL     1      99.731  93.197 104.122  1.00  0.00    -0.025 A 
ATOM     27  C   UNL     1     101.027  93.319 104.655  1.00  0.00    -0.041 A 
ATOM     28  C   UNL     1      99.570  92.726 102.811  1.00  0.00     0.006 A 
ATOM     29  C   UNL     1     102.133  92.940 103.884  1.00  0.00     0.004 A 
ATOM     30  C   UNL     1     100.678  92.365 102.046  1.00  0.00     0.000 A 
ATOM     31  C   UNL     1     101.958  92.469 102.583  1.00  0.00     0.000 A 
ENDBRANCH  20  22
ENDBRANCH   3  20
TORSDOF 4
ENDMDL
MODEL 10
REMARK VINA RESULT:      -7.1     10.027     14.374
REMARK SMILES O=C(Nc1nc2c(s1)CC[C@H]2C(=O)N1CCc2ccccc2C1)c1ccc(Cl)cc1
REMARK SMILES IDX 8 1 5 2 11 3 10 4 9 5 6 6 7 7 4 8 3 9 2 10 1 11 24 13 27 14
REMARK SMILES IDX 26 15 29 16 25 17 30 18 28 19 12 20 13 21 14 22 15 23 23 24
REMARK SMILES IDX 16 25 22 26 17 27 21 28 18 29 20 30 19 31
REMARK H PARENT 3 12
ROOT
ATOM      1  S   UNL     1     101.607  95.570 114.101  1.00  0.00    -0.101 S 
ATOM      2  N   UNL     1     102.437  95.230 116.563  1.00  0.00    -0.224 NA
ATOM      3  C   UNL     1     103.336  92.832 116.225  1.00  0.00     0.129 C 
ATOM      4  C   UNL     1     103.023  91.926 114.981  1.00  0.00     0.026 C 
ATOM      5  C   UNL     1     102.637  92.876 113.793  1.00  0.00     0.050 C 
ATOM      6  C   UNL     1     102.702  94.109 115.835  1.00  0.00     0.069 A 
ATOM      7  C   UNL     1     102.324  94.120 114.523  1.00  0.00     0.031 A 
ATOM      8  C   UNL     1     101.852  96.089 115.744  1.00  0.00     0.190 A 
ENDROOT
BRANCH   8   9
ATOM      9  N   UNL     1     101.407  97.352 116.033  1.00  0.00    -0.298 N 
ATOM     10  C   UNL     1     102.161  98.403 116.580  1.00  0.00     0.257 C 
ATOM     11  O   UNL     1     103.346  98.378 116.896  1.00  0.00    -0.269 OA
ATOM     12  H   UNL     1     100.439  97.510 115.774  1.00  0.00     0.172 HD
BRANCH  10  13
ATOM     13  C   UNL     1     101.429  99.684 116.762  1.00  0.00     0.040 A 
ATOM     14  C   UNL     1     100.055 102.089 117.101  1.00  0.00     0.041 A 
ATOM     15  C   UNL     1     101.436 102.042 117.290  1.00  0.00     0.021 A 
ATOM     16  C   UNL     1      99.361 100.933 116.743  1.00  0.00     0.021 A 
ATOM     17  C   UNL     1     102.123 100.840 117.120  1.00  0.00     0.015 A 
ATOM     18  C   UNL     1     100.047  99.731 116.574  1.00  0.00     0.015 A 
ATOM     19  Cl  UNL     1      99.208 103.572 117.310  1.00  0.00    -0.084 Cl
ENDBRANCH  10  13
ENDBRANCH   8   9
BRANCH   3  20
ATOM     20  C   UNL     1     104.823  93.007 116.407  1.00  0.00     0.232 C 
ATOM     21  O   UNL     1     105.346  92.679 117.474  1.00  0.00    -0.274 OA
BRANCH  20  22
ATOM     22  N   UNL     1     105.521  93.538 115.319  1.00  0.00    -0.337 N 
ATOM     23  C   UNL     1     106.321  92.651 114.474  1.00  0.00     0.124 C 
ATOM     24  C   UNL     1     105.644  94.977 115.043  1.00  0.00     0.155 C 
ATOM     25  C   UNL     1     105.986  92.865 113.004  1.00  0.00     0.057 C 
ATOM     26  C   UNL     1     105.916  95.318 113.598  1.00  0.00    -0.025 A 
ATOM     27  C   UNL     1     106.094  94.318 112.626  1.00  0.00    -0.041 A 
ATOM     28  C   UNL     1     106.002  96.666 113.220  1.00  0.00     0.006 A 
ATOM     29  C   UNL     1     106.324  94.679 111.292  1.00  0.00     0.004 A 
ATOM     30  C   UNL     1     106.245  97.016 111.893  1.00  0.00     0.000 A 
ATOM     31  C   UNL     1     106.402  96.024 110.929  1.00  0.00     0.000 A 
ENDBRANCH  20  22
ENDBRANCH   3  20
TORSDOF 4
ENDMDL
MODEL 11
REMARK VINA RESULT:      -7.1     12.440     14.108
REMARK SMILES O=C(Nc1nc2c(s1)CC[C@H]2C(=O)N1CCc2ccccc2C1)c1ccc(Cl)cc1
REMARK SMILES IDX 8 1 5 2 11 3 10 4 9 5 6 6 7 7 4 8 3 9 2 10 1 11 24 13 27 14
REMARK SMILES IDX 26 15 29 16 25 17 30 18 28 19 12 20 13 21 14 22 15 23 23 24
REMARK SMILES IDX 16 25 22 26 17 27 21 28 18 29 20 30 19 31
REMARK H PARENT 3 12
ROOT
ATOM      1  S   UNL     1     102.866  92.237 113.296  1.00  0.00    -0.101 S 
ATOM      2  N   UNL     1     102.060  94.675 113.818  1.00  0.00    -0.224 NA
ATOM      3  C   UNL     1     102.803  94.689 116.292  1.00  0.00     0.129 C 
ATOM      4  C   UNL     1     103.215  93.414 117.111  1.00  0.00     0.026 C 
ATOM      5  C   UNL     1     103.674  92.322 116.080  1.00  0.00     0.050 C 
ATOM      6  C   UNL     1     102.618  94.131 114.936  1.00  0.00     0.069 A 
ATOM      7  C   UNL     1     103.087  92.852 114.835  1.00  0.00     0.031 A 
ATOM      8  C   UNL     1     102.135  93.757 112.868  1.00  0.00     0.190 A 
ENDROOT
BRANCH   8   9
ATOM      9  N   UNL     1     101.703  93.856 111.572  1.00  0.00    -0.298 N 
ATOM     10  C   UNL     1     100.389  93.682 111.110  1.00  0.00     0.257 C 
ATOM     11  O   UNL     1      99.398  93.411 111.779  1.00  0.00    -0.269 OA
ATOM     12  H   UNL     1     102.435  94.121 110.919  1.00  0.00     0.172 HD
BRANCH  10  13
ATOM     13  C   UNL     1     100.196  93.879 109.648  1.00  0.00     0.040 A 
ATOM     14  C   UNL     1      99.837  94.249 106.906  1.00  0.00     0.041 A 
ATOM     15  C   UNL     1      99.710  95.330 107.778  1.00  0.00     0.021 A 
ATOM     16  C   UNL     1     100.144  92.983 107.405  1.00  0.00     0.021 A 
ATOM     17  C   UNL     1      99.890  95.145 109.150  1.00  0.00     0.015 A 
ATOM     18  C   UNL     1     100.324  92.798 108.775  1.00  0.00     0.015 A 
ATOM     19  Cl  UNL     1      99.616  94.478 105.215  1.00  0.00    -0.084 Cl
ENDBRANCH  10  13
ENDBRANCH   8   9
BRANCH   3  20
ATOM     20  C   UNL     1     103.907  95.718 116.300  1.00  0.00     0.232 C 
ATOM     21  O   UNL     1     103.860  96.650 117.105  1.00  0.00    -0.274 OA
BRANCH  20  22
ATOM     22  N   UNL     1     104.935  95.529 115.374  1.00  0.00    -0.337 N 
ATOM     23  C   UNL     1     106.182  94.893 115.799  1.00  0.00     0.124 C 
ATOM     24  C   UNL     1     104.923  96.075 114.009  1.00  0.00     0.155 C 
ATOM     25  C   UNL     1     106.558  93.761 114.851  1.00  0.00     0.057 C 
ATOM     26  C   UNL     1     105.788  95.326 113.024  1.00  0.00    -0.025 A 
ATOM     27  C   UNL     1     106.579  94.233 113.421  1.00  0.00    -0.041 A 
ATOM     28  C   UNL     1     105.808  95.736 111.684  1.00  0.00     0.006 A 
ATOM     29  C   UNL     1     107.351  93.553 112.471  1.00  0.00     0.004 A 
ATOM     30  C   UNL     1     106.590  95.061 110.747  1.00  0.00     0.000 A 
ATOM     31  C   UNL     1     107.359  93.968 111.140  1.00  0.00     0.000 A 
ENDBRANCH  20  22
ENDBRANCH   3  20
TORSDOF 4
ENDMDL
MODEL 12
REMARK VINA RESULT:      -6.8     10.704     14.462
REMARK SMILES O=C(Nc1nc2c(s1)CC[C@H]2C(=O)N1CCc2ccccc2C1)c1ccc(Cl)cc1
REMARK SMILES IDX 8 1 5 2 11 3 10 4 9 5 6 6 7 7 4 8 3 9 2 10 1 11 24 13 27 14
REMARK SMILES IDX 26 15 29 16 25 17 30 18 28 19 12 20 13 21 14 22 15 23 23 24
REMARK SMILES IDX 16 25 22 26 17 27 21 28 18 29 20 30 19 31
REMARK H PARENT 3 12
ROOT
ATOM      1  S   UNL     1     105.000  95.316 116.512  1.00  0.00    -0.101 S 
ATOM      2  N   UNL     1     105.368  96.350 114.133  1.00  0.00    -0.224 NA
ATOM      3  C   UNL     1     106.966  94.512 113.275  1.00  0.00     0.129 C 
ATOM      4  C   UNL     1     107.665  93.438 114.182  1.00  0.00     0.026 C 
ATOM      5  C   UNL     1     106.799  93.288 115.484  1.00  0.00     0.050 C 
ATOM      6  C   UNL     1     106.081  95.194 114.242  1.00  0.00     0.069 A 
ATOM      7  C   UNL     1     106.002  94.528 115.432  1.00  0.00     0.031 A 
ATOM      8  C   UNL     1     104.742  96.524 115.286  1.00  0.00     0.190 A 
ENDROOT
BRANCH   8   9
ATOM      9  N   UNL     1     103.906  97.550 115.640  1.00  0.00    -0.298 N 
ATOM     10  C   UNL     1     102.608  97.434 116.162  1.00  0.00     0.257 C 
ATOM     11  O   UNL     1     101.993  96.400 116.394  1.00  0.00    -0.269 OA
ATOM     12  H   UNL     1     104.325  98.469 115.531  1.00  0.00     0.172 HD
BRANCH  10  13
ATOM     13  C   UNL     1     101.936  98.721 116.488  1.00  0.00     0.040 A 
ATOM     14  C   UNL     1     100.676 101.134 117.099  1.00  0.00     0.041 A 
ATOM     15  C   UNL     1     102.033 100.966 117.376  1.00  0.00     0.021 A 
ATOM     16  C   UNL     1      99.950 100.095 116.516  1.00  0.00     0.021 A 
ATOM     17  C   UNL     1     102.664  99.759 117.071  1.00  0.00     0.015 A 
ATOM     18  C   UNL     1     100.579  98.889 116.211  1.00  0.00     0.015 A 
ATOM     19  Cl  UNL     1      99.899 102.622 117.475  1.00  0.00    -0.084 Cl
ENDBRANCH  10  13
ENDBRANCH   8   9
BRANCH   3  20
ATOM     20  C   UNL     1     106.159  93.855 112.183  1.00  0.00     0.232 C 
ATOM     21  O   UNL     1     106.701  93.585 111.109  1.00  0.00    -0.274 OA
BRANCH  20  22
ATOM     22  N   UNL     1     104.821  93.587 112.478  1.00  0.00    -0.337 N 
ATOM     23  C   UNL     1     104.443  92.264 112.975  1.00  0.00     0.124 C 
ATOM     24  C   UNL     1     103.711  94.502 112.172  1.00  0.00     0.155 C 
ATOM     25  C   UNL     1     103.592  92.386 114.232  1.00  0.00     0.057 C 
ATOM     26  C   UNL     1     102.488  94.318 113.038  1.00  0.00    -0.025 A 
ATOM     27  C   UNL     1     102.419  93.303 114.009  1.00  0.00    -0.041 A 
ATOM     28  C   UNL     1     101.392  95.173 112.860  1.00  0.00     0.006 A 
ATOM     29  C   UNL     1     101.273  93.181 114.805  1.00  0.00     0.004 A 
ATOM     30  C   UNL     1     100.249  95.035 113.647  1.00  0.00     0.000 A 
ATOM     31  C   UNL     1     100.191  94.042 114.621  1.00  0.00     0.000 A 
ENDBRANCH  20  22
ENDBRANCH   3  20
TORSDOF 4
ENDMDL
MODEL 13
REMARK VINA RESULT:      -6.7     10.611     14.089
REMARK SMILES O=C(Nc1nc2c(s1)CC[C@H]2C(=O)N1CCc2ccccc2C1)c1ccc(Cl)cc1
REMARK SMILES IDX 8 1 5 2 11 3 10 4 9 5 6 6 7 7 4 8 3 9 2 10 1 11 24 13 27 14
REMARK SMILES IDX 26 15 29 16 25 17 30 18 28 19 12 20 13 21 14 22 15 23 23 24
REMARK SMILES IDX 16 25 22 26 17 27 21 28 18 29 20 30 19 31
REMARK H PARENT 3 12
ROOT
ATOM      1  S   UNL     1     104.459  97.595 112.292  1.00  0.00    -0.101 S 
ATOM      2  N   UNL     1     103.758  95.168 112.986  1.00  0.00    -0.224 NA
ATOM      3  C   UNL     1     105.758  93.971 111.875  1.00  0.00     0.129 C 
ATOM      4  C   UNL     1     106.735  94.634 110.839  1.00  0.00     0.026 C 
ATOM      5  C   UNL     1     106.679  96.187 111.067  1.00  0.00     0.050 C 
ATOM      6  C   UNL     1     104.920  95.120 112.276  1.00  0.00     0.069 A 
ATOM      7  C   UNL     1     105.423  96.309 111.831  1.00  0.00     0.031 A 
ATOM      8  C   UNL     1     103.410  96.442 113.066  1.00  0.00     0.190 A 
ENDROOT
BRANCH   8   9
ATOM      9  N   UNL     1     102.311  96.974 113.688  1.00  0.00    -0.298 N 
ATOM     10  C   UNL     1     102.233  97.419 115.017  1.00  0.00     0.257 C 
ATOM     11  O   UNL     1     103.128  97.411 115.855  1.00  0.00    -0.269 OA
ATOM     12  H   UNL     1     101.507  97.071 113.076  1.00  0.00     0.172 HD
BRANCH  10  13
ATOM     13  C   UNL     1     100.917  97.982 115.423  1.00  0.00     0.040 A 
ATOM     14  C   UNL     1      98.450  99.041 116.184  1.00  0.00     0.041 A 
ATOM     15  C   UNL     1      99.612  99.429 116.852  1.00  0.00     0.021 A 
ATOM     16  C   UNL     1      98.523  98.123 115.135  1.00  0.00     0.021 A 
ATOM     17  C   UNL     1     100.846  98.899 116.472  1.00  0.00     0.015 A 
ATOM     18  C   UNL     1      99.756  97.594 114.755  1.00  0.00     0.015 A 
ATOM     19  Cl  UNL     1      96.929  99.693 116.652  1.00  0.00    -0.084 Cl
ENDBRANCH  10  13
ENDBRANCH   8   9
BRANCH   3  20
ATOM     20  C   UNL     1     106.516  93.423 113.059  1.00  0.00     0.232 C 
ATOM     21  O   UNL     1     107.719  93.179 112.947  1.00  0.00    -0.274 OA
BRANCH  20  22
ATOM     22  N   UNL     1     105.779  93.232 114.230  1.00  0.00    -0.337 N 
ATOM     23  C   UNL     1     106.257  93.813 115.485  1.00  0.00     0.124 C 
ATOM     24  C   UNL     1     104.617  92.338 114.334  1.00  0.00     0.155 C 
ATOM     25  C   UNL     1     105.143  94.591 116.174  1.00  0.00     0.057 C 
ATOM     26  C   UNL     1     103.655  92.686 115.445  1.00  0.00    -0.025 A 
ATOM     27  C   UNL     1     103.907  93.747 116.332  1.00  0.00    -0.041 A 
ATOM     28  C   UNL     1     102.487  91.925 115.598  1.00  0.00     0.006 A 
ATOM     29  C   UNL     1     102.977  94.049 117.335  1.00  0.00     0.004 A 
ATOM     30  C   UNL     1     101.574  92.224 116.609  1.00  0.00     0.000 A 
ATOM     31  C   UNL     1     101.817  93.287 117.475  1.00  0.00     0.000 A 
ENDBRANCH  20  22
ENDBRANCH   3  20
TORSDOF 4
ENDMDL
MODEL 14
REMARK VINA RESULT:      -6.7      8.367     12.151
REMARK SMILES O=C(Nc1nc2c(s1)CC[C@H]2C(=O)N1CCc2ccccc2C1)c1ccc(Cl)cc1
REMARK SMILES IDX 8 1 5 2 11 3 10 4 9 5 6 6 7 7 4 8 3 9 2 10 1 11 24 13 27 14
REMARK SMILES IDX 26 15 29 16 25 17 30 18 28 19 12 20 13 21 14 22 15 23 23 24
REMARK SMILES IDX 16 25 22 26 17 27 21 28 18 29 20 30 19 31
REMARK H PARENT 3 12
ROOT
ATOM      1  S   UNL     1     100.259  94.773 115.004  1.00  0.00    -0.101 S 
ATOM      2  N   UNL     1     101.097  97.217 114.567  1.00  0.00    -0.224 NA
ATOM      3  C   UNL     1      98.814  98.365 114.941  1.00  0.00     0.129 C 
ATOM      4  C   UNL     1      97.435  97.616 115.006  1.00  0.00     0.026 C 
ATOM      5  C   UNL     1      97.727  96.127 115.410  1.00  0.00     0.050 C 
ATOM      6  C   UNL     1      99.766  97.238 114.857  1.00  0.00     0.069 A 
ATOM      7  C   UNL     1      99.168  96.035 115.107  1.00  0.00     0.031 A 
ATOM      8  C   UNL     1     101.480  95.951 114.617  1.00  0.00     0.190 A 
ENDROOT
BRANCH   8   9
ATOM      9  N   UNL     1     102.735  95.446 114.396  1.00  0.00    -0.298 N 
ATOM     10  C   UNL     1     103.212  94.873 113.207  1.00  0.00     0.257 C 
ATOM     11  O   UNL     1     102.596  94.722 112.158  1.00  0.00    -0.269 OA
ATOM     12  H   UNL     1     103.359  95.553 115.190  1.00  0.00     0.172 HD
BRANCH  10  13
ATOM     13  C   UNL     1     104.633  94.433 113.239  1.00  0.00     0.040 A 
ATOM     14  C   UNL     1     107.297  93.608 113.297  1.00  0.00     0.041 A 
ATOM     15  C   UNL     1     106.544  93.451 112.133  1.00  0.00     0.021 A 
ATOM     16  C   UNL     1     106.718  94.177 114.431  1.00  0.00     0.021 A 
ATOM     17  C   UNL     1     105.211  93.863 112.104  1.00  0.00     0.015 A 
ATOM     18  C   UNL     1     105.386  94.590 114.402  1.00  0.00     0.015 A 
ATOM     19  Cl  UNL     1     108.941  93.100 113.333  1.00  0.00    -0.084 Cl
ENDBRANCH  10  13
ENDBRANCH   8   9
BRANCH   3  20
ATOM     20  C   UNL     1      99.050  99.171 116.195  1.00  0.00     0.232 C 
ATOM     21  O   UNL     1      99.571  98.631 117.173  1.00  0.00    -0.274 OA
BRANCH  20  22
ATOM     22  N   UNL     1      98.656 100.510 116.152  1.00  0.00    -0.337 N 
ATOM     23  C   UNL     1      98.981 101.394 117.271  1.00  0.00     0.124 C 
ATOM     24  C   UNL     1      97.779 101.077 115.116  1.00  0.00     0.155 C 
ATOM     25  C   UNL     1      99.636 102.675 116.770  1.00  0.00     0.057 C 
ATOM     26  C   UNL     1      97.929 102.566 114.913  1.00  0.00    -0.025 A 
ATOM     27  C   UNL     1      98.800 103.334 115.706  1.00  0.00    -0.041 A 
ATOM     28  C   UNL     1      97.175 103.197 113.914  1.00  0.00     0.006 A 
ATOM     29  C   UNL     1      98.925 104.709 115.469  1.00  0.00     0.004 A 
ATOM     30  C   UNL     1      97.295 104.569 113.694  1.00  0.00     0.000 A 
ATOM     31  C   UNL     1      98.171 105.323 114.469  1.00  0.00     0.000 A 
ENDBRANCH  20  22
ENDBRANCH   3  20
TORSDOF 4
ENDMDL
MODEL 15
REMARK VINA RESULT:      -6.7      9.730     12.640
REMARK SMILES O=C(Nc1nc2c(s1)CC[C@H]2C(=O)N1CCc2ccccc2C1)c1ccc(Cl)cc1
REMARK SMILES IDX 8 1 5 2 11 3 10 4 9 5 6 6 7 7 4 8 3 9 2 10 1 11 24 13 27 14
REMARK SMILES IDX 26 15 29 16 25 17 30 18 28 19 12 20 13 21 14 22 15 23 23 24
REMARK SMILES IDX 16 25 22 26 17 27 21 28 18 29 20 30 19 31
REMARK H PARENT 3 12
ROOT
ATOM      1  S   UNL     1     100.538  93.797 110.383  1.00  0.00    -0.101 S 
ATOM      2  N   UNL     1     100.516  95.777 112.098  1.00  0.00    -0.224 NA
ATOM      3  C   UNL     1      98.066  96.481 111.679  1.00  0.00     0.129 C 
ATOM      4  C   UNL     1      97.191  95.999 110.467  1.00  0.00     0.026 C 
ATOM      5  C   UNL     1      97.796  94.641 109.962  1.00  0.00     0.050 C 
ATOM      6  C   UNL     1      99.294  95.678 111.503  1.00  0.00     0.069 A 
ATOM      7  C   UNL     1      99.139  94.692 110.570  1.00  0.00     0.031 A 
ATOM      8  C   UNL     1     101.272  94.821 111.584  1.00  0.00     0.190 A 
ENDROOT
BRANCH   8   9
ATOM      9  N   UNL     1     102.577  94.533 111.882  1.00  0.00    -0.298 N 
ATOM     10  C   UNL     1     103.585  95.452 112.216  1.00  0.00     0.257 C 
ATOM     11  O   UNL     1     103.477  96.671 112.300  1.00  0.00    -0.269 OA
ATOM     12  H   UNL     1     102.782  93.539 111.886  1.00  0.00     0.172 HD
BRANCH  10  13
ATOM     13  C   UNL     1     104.913  94.857 112.524  1.00  0.00     0.040 A 
ATOM     14  C   UNL     1     107.403  93.740 113.103  1.00  0.00     0.041 A 
ATOM     15  C   UNL     1     106.619  94.268 114.130  1.00  0.00     0.021 A 
ATOM     16  C   UNL     1     106.941  93.771 111.787  1.00  0.00     0.021 A 
ATOM     17  C   UNL     1     105.374  94.827 113.840  1.00  0.00     0.015 A 
ATOM     18  C   UNL     1     105.696  94.330 111.498  1.00  0.00     0.015 A 
ATOM     19  Cl  UNL     1     108.938  93.051 113.460  1.00  0.00    -0.084 Cl
ENDBRANCH  10  13
ENDBRANCH   8   9
BRANCH   3  20
ATOM     20  C   UNL     1      97.398  96.155 112.992  1.00  0.00     0.232 C 
ATOM     21  O   UNL     1      96.605  95.213 113.050  1.00  0.00    -0.274 OA
BRANCH  20  22
ATOM     22  N   UNL     1      97.742  96.963 114.078  1.00  0.00    -0.337 N 
ATOM     23  C   UNL     1      98.565  96.412 115.155  1.00  0.00     0.124 C 
ATOM     24  C   UNL     1      97.197  98.309 114.307  1.00  0.00     0.155 C 
ATOM     25  C   UNL     1      99.739  97.334 115.458  1.00  0.00     0.057 C 
ATOM     26  C   UNL     1      98.069  99.204 115.154  1.00  0.00    -0.025 A 
ATOM     27  C   UNL     1      99.272  98.742 115.717  1.00  0.00    -0.041 A 
ATOM     28  C   UNL     1      97.664 100.525 115.391  1.00  0.00     0.006 A 
ATOM     29  C   UNL     1     100.062  99.612 116.478  1.00  0.00     0.004 A 
ATOM     30  C   UNL     1      98.450 101.381 116.163  1.00  0.00     0.000 A 
ATOM     31  C   UNL     1      99.650 100.926 116.703  1.00  0.00     0.000 A 
ENDBRANCH  20  22
ENDBRANCH   3  20
TORSDOF 4
ENDMDL
