MODEL 1
REMARK VINA RESULT:     -11.0      0.000      0.000
REMARK SMILES O=C(Cc1ccccc1)N1CCC([C@@]2(c3ccccn3)NC(=O)N(C[C@@H]3CCCO3)C2=O)CC1
REMARK SMILES IDX 1 1 10 2 13 3 12 4 33 5 11 6 34 7 2 8 14 9 24 10 31 11 22 12
REMARK SMILES IDX 32 13 23 14 21 15 25 17 26 18 30 19 29 20 27 21 28 22 15 23
REMARK SMILES IDX 20 24 16 25 19 26 17 27 18 28 3 29 4 30 5 31 9 32 6 33 8 34
REMARK SMILES IDX 7 35
REMARK H PARENT 21 16
ROOT
ATOM      1  O   UNL     1     113.842 112.404  79.125  1.00  0.00    -0.275 OA
ATOM      2  N   UNL     1     111.561 112.617  79.516  1.00  0.00    -0.342 N 
ATOM      3  C   UNL     1     108.947 112.114  78.364  1.00  0.00     0.034 C 
ATOM      4  C   UNL     1     109.334 113.492  78.923  1.00  0.00     0.028 C 
ATOM      5  C   UNL     1     110.200 111.363  77.890  1.00  0.00     0.028 C 
ATOM      6  C   UNL     1     110.402 113.370  80.009  1.00  0.00     0.120 C 
ATOM      7  C   UNL     1     111.249 111.284  78.996  1.00  0.00     0.120 C 
ATOM      8  C   UNL     1     112.884 113.058  79.547  1.00  0.00     0.226 C 
ENDROOT
BRANCH   3   9
ATOM      9  C   UNL     1     107.934 112.254  77.230  1.00  0.00     0.166 C 
ATOM     10  N   UNL     1     108.759 111.852  75.042  1.00  0.00    -0.259 N 
ATOM     11  C   UNL     1     108.289 111.204  76.164  1.00  0.00     0.263 C 
ATOM     12  C   UNL     1     108.727 113.224  75.204  1.00  0.00     0.325 C 
ATOM     13  O   UNL     1     108.170 109.995  76.327  1.00  0.00    -0.271 OA
ATOM     14  O   UNL     1     109.061 114.078  74.394  1.00  0.00    -0.248 OA
ATOM     15  N   UNL     1     108.224 113.467  76.483  1.00  0.00    -0.318 N 
ATOM     16  H   UNL     1     108.075 114.404  76.845  1.00  0.00     0.166 HD
BRANCH  10  17
ATOM     17  C   UNL     1     109.207 111.197  73.830  1.00  0.00     0.162 C 
BRANCH  17  18
ATOM     18  C   UNL     1     110.719 111.093  73.781  1.00  0.00     0.138 C 
ATOM     19  O   UNL     1     111.213 110.567  75.025  1.00  0.00    -0.376 OA
ATOM     20  C   UNL     1     112.258 109.625  74.735  1.00  0.00     0.160 C 
ATOM     21  C   UNL     1     111.228 110.162  72.695  1.00  0.00     0.036 C 
ATOM     22  C   UNL     1     112.564 109.746  73.257  1.00  0.00     0.031 C 
ENDBRANCH  17  18
ENDBRANCH  10  17
BRANCH   9  23
ATOM     23  C   UNL     1     106.465 112.186  77.620  1.00  0.00     0.076 A 
ATOM     24  N   UNL     1     105.567 112.518  76.665  1.00  0.00    -0.258 NA
ATOM     25  C   UNL     1     106.121 111.797  78.905  1.00  0.00     0.027 A 
ATOM     26  C   UNL     1     104.264 112.455  77.017  1.00  0.00     0.111 A 
ATOM     27  C   UNL     1     104.771 111.744  79.230  1.00  0.00     0.004 A 
ATOM     28  C   UNL     1     103.818 112.077  78.273  1.00  0.00     0.020 A 
ENDBRANCH   9  23
ENDBRANCH   3   9
BRANCH   8  29
ATOM     29  C   UNL     1     113.126 114.424  80.136  1.00  0.00     0.135 C 
BRANCH  29  30
ATOM     30  C   UNL     1     114.485 114.927  79.759  1.00  0.00    -0.039 A 
ATOM     31  C   UNL     1     115.527 114.886  80.685  1.00  0.00     0.004 A 
ATOM     32  C   UNL     1     114.709 115.439  78.480  1.00  0.00     0.004 A 
ATOM     33  C   UNL     1     116.793 115.354  80.334  1.00  0.00     0.000 A 
ATOM     34  C   UNL     1     115.975 115.907  78.128  1.00  0.00     0.000 A 
ATOM     35  C   UNL     1     117.016 115.865  79.055  1.00  0.00     0.000 A 
ENDBRANCH  29  30
ENDBRANCH   8  29
TORSDOF 6
ENDMDL
MODEL 2
REMARK VINA RESULT:     -10.9      1.163      1.790
REMARK SMILES O=C(Cc1ccccc1)N1CCC([C@@]2(c3ccccn3)NC(=O)N(C[C@@H]3CCCO3)C2=O)CC1
REMARK SMILES IDX 1 1 10 2 13 3 12 4 33 5 11 6 34 7 2 8 14 9 24 10 31 11 22 12
REMARK SMILES IDX 32 13 23 14 21 15 25 17 26 18 30 19 29 20 27 21 28 22 15 23
REMARK SMILES IDX 20 24 16 25 19 26 17 27 18 28 3 29 4 30 5 31 9 32 6 33 8 34
REMARK SMILES IDX 7 35
REMARK H PARENT 21 16
ROOT
ATOM      1  O   UNL     1     113.907 112.390  79.243  1.00  0.00    -0.275 OA
ATOM      2  N   UNL     1     111.629 112.662  79.606  1.00  0.00    -0.342 N 
ATOM      3  C   UNL     1     109.016 112.229  78.422  1.00  0.00     0.034 C 
ATOM      4  C   UNL     1     109.432 113.596  78.987  1.00  0.00     0.028 C 
ATOM      5  C   UNL     1     110.255 111.445  77.962  1.00  0.00     0.028 C 
ATOM      6  C   UNL     1     110.484 113.446  80.085  1.00  0.00     0.120 C 
ATOM      7  C   UNL     1     111.288 111.339  79.081  1.00  0.00     0.120 C 
ATOM      8  C   UNL     1     112.962 113.069  79.654  1.00  0.00     0.226 C 
ENDROOT
BRANCH   3   9
ATOM      9  C   UNL     1     108.022 112.395  77.275  1.00  0.00     0.166 C 
ATOM     10  N   UNL     1     108.902 112.142  75.087  1.00  0.00    -0.259 N 
ATOM     11  C   UNL     1     108.434 111.417  76.163  1.00  0.00     0.263 C 
ATOM     12  C   UNL     1     108.819 113.501  75.322  1.00  0.00     0.325 C 
ATOM     13  O   UNL     1     108.354 110.198  76.258  1.00  0.00    -0.271 OA
ATOM     14  O   UNL     1     109.139 114.409  74.566  1.00  0.00    -0.248 OA
ATOM     15  N   UNL     1     108.283 113.657  76.602  1.00  0.00    -0.318 N 
ATOM     16  H   UNL     1     108.094 114.566  77.010  1.00  0.00     0.166 HD
BRANCH  10  17
ATOM     17  C   UNL     1     109.397 111.569  73.852  1.00  0.00     0.162 C 
BRANCH  17  18
ATOM     18  C   UNL     1     108.344 111.607  72.761  1.00  0.00     0.138 C 
ATOM     19  O   UNL     1     108.921 112.104  71.542  1.00  0.00    -0.376 OA
ATOM     20  C   UNL     1     108.417 111.320  70.450  1.00  0.00     0.160 C 
ATOM     21  C   UNL     1     107.765 110.242  72.431  1.00  0.00     0.036 C 
ATOM     22  C   UNL     1     107.314 110.444  71.006  1.00  0.00     0.031 C 
ENDBRANCH  17  18
ENDBRANCH  10  17
BRANCH   9  23
ATOM     23  C   UNL     1     106.548 112.256  77.630  1.00  0.00     0.076 A 
ATOM     24  N   UNL     1     105.659 112.554  76.656  1.00  0.00    -0.258 NA
ATOM     25  C   UNL     1     106.193 111.841  78.903  1.00  0.00     0.027 A 
ATOM     26  C   UNL     1     104.352 112.427  76.977  1.00  0.00     0.111 A 
ATOM     27  C   UNL     1     104.839 111.722  79.196  1.00  0.00     0.004 A 
ATOM     28  C   UNL     1     103.894 112.019  78.219  1.00  0.00     0.020 A 
ENDBRANCH   9  23
ENDBRANCH   3   9
BRANCH   8  29
ATOM     29  C   UNL     1     113.233 114.428  80.246  1.00  0.00     0.135 C 
BRANCH  29  30
ATOM     30  C   UNL     1     114.579 114.928  79.824  1.00  0.00    -0.039 A 
ATOM     31  C   UNL     1     115.645 114.907  80.724  1.00  0.00     0.004 A 
ATOM     32  C   UNL     1     114.768 115.417  78.531  1.00  0.00     0.004 A 
ATOM     33  C   UNL     1     116.900 115.373  80.330  1.00  0.00     0.000 A 
ATOM     34  C   UNL     1     116.022 115.883  78.138  1.00  0.00     0.000 A 
ATOM     35  C   UNL     1     117.088 115.861  79.037  1.00  0.00     0.000 A 
ENDBRANCH  29  30
ENDBRANCH   8  29
TORSDOF 6
ENDMDL
MODEL 3
REMARK VINA RESULT:     -10.4      1.617      2.215
REMARK SMILES O=C(Cc1ccccc1)N1CCC([C@@]2(c3ccccn3)NC(=O)N(C[C@@H]3CCCO3)C2=O)CC1
REMARK SMILES IDX 1 1 10 2 13 3 12 4 33 5 11 6 34 7 2 8 14 9 24 10 31 11 22 12
REMARK SMILES IDX 32 13 23 14 21 15 25 17 26 18 30 19 29 20 27 21 28 22 15 23
REMARK SMILES IDX 20 24 16 25 19 26 17 27 18 28 3 29 4 30 5 31 9 32 6 33 8 34
REMARK SMILES IDX 7 35
REMARK H PARENT 21 16
ROOT
ATOM      1  O   UNL     1     114.654 112.833  79.066  1.00  0.00    -0.275 OA
ATOM      2  N   UNL     1     112.516 113.738  79.142  1.00  0.00    -0.342 N 
ATOM      3  C   UNL     1     109.809 113.398  78.155  1.00  0.00     0.034 C 
ATOM      4  C   UNL     1     110.547 114.741  78.047  1.00  0.00     0.028 C 
ATOM      5  C   UNL     1     110.816 112.239  78.174  1.00  0.00     0.028 C 
ATOM      6  C   UNL     1     111.600 114.885  79.145  1.00  0.00     0.120 C 
ATOM      7  C   UNL     1     111.862 112.434  79.269  1.00  0.00     0.120 C 
ATOM      8  C   UNL     1     113.906 113.814  79.067  1.00  0.00     0.226 C 
ENDROOT
BRANCH   3   9
ATOM      9  C   UNL     1     108.812 113.233  77.010  1.00  0.00     0.166 C 
ATOM     10  N   UNL     1     109.733 113.200  74.824  1.00  0.00    -0.259 N 
ATOM     11  C   UNL     1     109.499 112.396  75.919  1.00  0.00     0.263 C 
ATOM     12  C   UNL     1     109.248 114.478  75.027  1.00  0.00     0.325 C 
ATOM     13  O   UNL     1     109.786 111.211  76.044  1.00  0.00    -0.271 OA
ATOM     14  O   UNL     1     109.285 115.422  74.248  1.00  0.00    -0.248 OA
ATOM     15  N   UNL     1     108.688 114.498  76.305  1.00  0.00    -0.318 N 
ATOM     16  H   UNL     1     108.235 115.320  76.693  1.00  0.00     0.166 HD
BRANCH  10  17
ATOM     17  C   UNL     1     110.378 112.771  73.600  1.00  0.00     0.162 C 
BRANCH  17  18
ATOM     18  C   UNL     1     109.374 112.591  72.477  1.00  0.00     0.138 C 
ATOM     19  O   UNL     1     109.952 113.019  71.232  1.00  0.00    -0.376 OA
ATOM     20  C   UNL     1     109.576 112.082  70.212  1.00  0.00     0.160 C 
ATOM     21  C   UNL     1     108.948 111.147  72.271  1.00  0.00     0.036 C 
ATOM     22  C   UNL     1     108.542 111.158  70.819  1.00  0.00     0.031 C 
ENDBRANCH  17  18
ENDBRANCH  10  17
BRANCH   9  23
ATOM     23  C   UNL     1     107.446 112.670  77.376  1.00  0.00     0.076 A 
ATOM     24  N   UNL     1     106.491 112.728  76.421  1.00  0.00    -0.258 NA
ATOM     25  C   UNL     1     107.248 112.138  78.640  1.00  0.00     0.027 A 
ATOM     26  C   UNL     1     105.281 112.225  76.751  1.00  0.00     0.111 A 
ATOM     27  C   UNL     1     105.990 111.631  78.943  1.00  0.00     0.004 A 
ATOM     28  C   UNL     1     104.981 111.672  77.985  1.00  0.00     0.020 A 
ENDBRANCH   9  23
ENDBRANCH   3   9
BRANCH   8  29
ATOM     29  C   UNL     1     114.503 115.196  78.979  1.00  0.00     0.135 C 
BRANCH  29  30
ATOM     30  C   UNL     1     115.801 115.257  79.722  1.00  0.00    -0.039 A 
ATOM     31  C   UNL     1     115.808 115.258  81.117  1.00  0.00     0.004 A 
ATOM     32  C   UNL     1     117.005 115.315  79.019  1.00  0.00     0.004 A 
ATOM     33  C   UNL     1     117.017 115.316  81.809  1.00  0.00     0.000 A 
ATOM     34  C   UNL     1     118.214 115.372  79.712  1.00  0.00     0.000 A 
ATOM     35  C   UNL     1     118.221 115.373  81.106  1.00  0.00     0.000 A 
ENDBRANCH  29  30
ENDBRANCH   8  29
TORSDOF 6
ENDMDL
MODEL 4
REMARK VINA RESULT:     -10.1      2.664      5.610
REMARK SMILES O=C(Cc1ccccc1)N1CCC([C@@]2(c3ccccn3)NC(=O)N(C[C@@H]3CCCO3)C2=O)CC1
REMARK SMILES IDX 1 1 10 2 13 3 12 4 33 5 11 6 34 7 2 8 14 9 24 10 31 11 22 12
REMARK SMILES IDX 32 13 23 14 21 15 25 17 26 18 30 19 29 20 27 21 28 22 15 23
REMARK SMILES IDX 20 24 16 25 19 26 17 27 18 28 3 29 4 30 5 31 9 32 6 33 8 34
REMARK SMILES IDX 7 35
REMARK H PARENT 21 16
ROOT
ATOM      1  O   UNL     1     109.151 115.387  80.472  1.00  0.00    -0.275 OA
ATOM      2  N   UNL     1     109.709 115.135  78.231  1.00  0.00    -0.342 N 
ATOM      3  C   UNL     1     108.970 113.750  75.791  1.00  0.00     0.034 C 
ATOM      4  C   UNL     1     110.414 113.752  76.315  1.00  0.00     0.028 C 
ATOM      5  C   UNL     1     107.983 113.926  76.954  1.00  0.00     0.028 C 
ATOM      6  C   UNL     1     110.698 114.996  77.156  1.00  0.00     0.120 C 
ATOM      7  C   UNL     1     108.316 115.166  77.780  1.00  0.00     0.120 C 
ATOM      8  C   UNL     1     110.003 115.272  79.587  1.00  0.00     0.226 C 
ENDROOT
BRANCH   3   9
ATOM      9  C   UNL     1     108.676 112.468  75.016  1.00  0.00     0.166 C 
ATOM     10  N   UNL     1     107.211 110.928  76.069  1.00  0.00    -0.259 N 
ATOM     11  C   UNL     1     107.217 112.078  75.309  1.00  0.00     0.263 C 
ATOM     12  C   UNL     1     108.494 110.466  76.294  1.00  0.00     0.325 C 
ATOM     13  O   UNL     1     106.246 112.717  74.922  1.00  0.00    -0.271 OA
ATOM     14  O   UNL     1     108.828 109.467  76.916  1.00  0.00    -0.248 OA
ATOM     15  N   UNL     1     109.360 111.359  75.660  1.00  0.00    -0.318 N 
ATOM     16  H   UNL     1     110.367 111.232  75.650  1.00  0.00     0.166 HD
BRANCH  10  17
ATOM     17  C   UNL     1     106.021 110.260  76.556  1.00  0.00     0.162 C 
BRANCH  17  18
ATOM     18  C   UNL     1     105.152 111.198  77.371  1.00  0.00     0.138 C 
ATOM     19  O   UNL     1     103.892 110.569  77.660  1.00  0.00    -0.376 OA
ATOM     20  C   UNL     1     103.540 110.864  79.021  1.00  0.00     0.160 C 
ATOM     21  C   UNL     1     105.757 111.570  78.714  1.00  0.00     0.036 C 
ATOM     22  C   UNL     1     104.525 111.901  79.518  1.00  0.00     0.031 C 
ENDBRANCH  17  18
ENDBRANCH  10  17
BRANCH   9  23
ATOM     23  C   UNL     1     108.961 112.498  73.521  1.00  0.00     0.076 A 
ATOM     24  N   UNL     1     109.125 111.303  72.911  1.00  0.00    -0.258 NA
ATOM     25  C   UNL     1     109.038 113.718  72.870  1.00  0.00     0.027 A 
ATOM     26  C   UNL     1     109.377 111.336  71.584  1.00  0.00     0.111 A 
ATOM     27  C   UNL     1     109.299 113.712  71.504  1.00  0.00     0.004 A 
ATOM     28  C   UNL     1     109.473 112.502  70.841  1.00  0.00     0.020 A 
ENDBRANCH   9  23
ENDBRANCH   3   9
BRANCH   8  29
ATOM     29  C   UNL     1     111.463 115.271  79.964  1.00  0.00     0.135 C 
BRANCH  29  30
ATOM     30  C   UNL     1     111.940 113.876  80.222  1.00  0.00    -0.039 A 
ATOM     31  C   UNL     1     113.050 113.380  79.538  1.00  0.00     0.004 A 
ATOM     32  C   UNL     1     111.274 113.071  81.147  1.00  0.00     0.004 A 
ATOM     33  C   UNL     1     113.495 112.080  79.779  1.00  0.00     0.000 A 
ATOM     34  C   UNL     1     111.719 111.771  81.387  1.00  0.00     0.000 A 
ATOM     35  C   UNL     1     112.828 111.276  80.703  1.00  0.00     0.000 A 
ENDBRANCH  29  30
ENDBRANCH   8  29
TORSDOF 6
ENDMDL
MODEL 5
REMARK VINA RESULT:      -9.9      2.291      5.365
REMARK SMILES O=C(Cc1ccccc1)N1CCC([C@@]2(c3ccccn3)NC(=O)N(C[C@@H]3CCCO3)C2=O)CC1
REMARK SMILES IDX 1 1 10 2 13 3 12 4 33 5 11 6 34 7 2 8 14 9 24 10 31 11 22 12
REMARK SMILES IDX 32 13 23 14 21 15 25 17 26 18 30 19 29 20 27 21 28 22 15 23
REMARK SMILES IDX 20 24 16 25 19 26 17 27 18 28 3 29 4 30 5 31 9 32 6 33 8 34
REMARK SMILES IDX 7 35
REMARK H PARENT 21 16
ROOT
ATOM      1  O   UNL     1     110.120 115.421  80.068  1.00  0.00    -0.275 OA
ATOM      2  N   UNL     1     109.810 115.281  77.769  1.00  0.00    -0.342 N 
ATOM      3  C   UNL     1     108.540 113.714  75.684  1.00  0.00     0.034 C 
ATOM      4  C   UNL     1     110.029 114.090  75.622  1.00  0.00     0.028 C 
ATOM      5  C   UNL     1     108.069 113.653  77.145  1.00  0.00     0.028 C 
ATOM      6  C   UNL     1     110.309 115.379  76.392  1.00  0.00     0.120 C 
ATOM      7  C   UNL     1     108.388 114.950  77.883  1.00  0.00     0.120 C 
ATOM      8  C   UNL     1     110.564 115.510  78.919  1.00  0.00     0.226 C 
ENDROOT
BRANCH   3   9
ATOM      9  C   UNL     1     108.286 112.386  74.974  1.00  0.00     0.166 C 
ATOM     10  N   UNL     1     106.902 110.839  76.123  1.00  0.00    -0.259 N 
ATOM     11  C   UNL     1     106.850 111.952  75.311  1.00  0.00     0.263 C 
ATOM     12  C   UNL     1     108.206 110.440  76.346  1.00  0.00     0.325 C 
ATOM     13  O   UNL     1     105.847 112.533  74.912  1.00  0.00    -0.271 OA
ATOM     14  O   UNL     1     108.591 109.485  77.008  1.00  0.00    -0.248 OA
ATOM     15  N   UNL     1     109.025 111.336  75.656  1.00  0.00    -0.318 N 
ATOM     16  H   UNL     1     110.036 111.250  75.634  1.00  0.00     0.166 HD
BRANCH  10  17
ATOM     17  C   UNL     1     105.748 110.148  76.661  1.00  0.00     0.162 C 
BRANCH  17  18
ATOM     18  C   UNL     1     104.868 111.083  77.469  1.00  0.00     0.138 C 
ATOM     19  O   UNL     1     103.651 110.411  77.837  1.00  0.00    -0.376 OA
ATOM     20  C   UNL     1     103.339 110.753  79.197  1.00  0.00     0.160 C 
ATOM     21  C   UNL     1     105.506 111.546  78.767  1.00  0.00     0.036 C 
ATOM     22  C   UNL     1     104.292 111.857  79.605  1.00  0.00     0.031 C 
ENDBRANCH  17  18
ENDBRANCH  10  17
BRANCH   9  23
ATOM     23  C   UNL     1     108.546 112.358  73.475  1.00  0.00     0.076 A 
ATOM     24  N   UNL     1     108.203 113.466  72.780  1.00  0.00    -0.258 NA
ATOM     25  C   UNL     1     109.107 111.227  72.904  1.00  0.00     0.027 A 
ATOM     26  C   UNL     1     108.438 113.436  71.449  1.00  0.00     0.111 A 
ATOM     27  C   UNL     1     109.333 111.234  71.533  1.00  0.00     0.004 A 
ATOM     28  C   UNL     1     108.995 112.356  70.784  1.00  0.00     0.020 A 
ENDBRANCH   9  23
ENDBRANCH   3   9
BRANCH   8  29
ATOM     29  C   UNL     1     112.010 115.886  78.716  1.00  0.00     0.135 C 
BRANCH  29  30
ATOM     30  C   UNL     1     112.904 114.726  79.024  1.00  0.00    -0.039 A 
ATOM     31  C   UNL     1     114.194 114.948  79.508  1.00  0.00     0.004 A 
ATOM     32  C   UNL     1     112.449 113.422  78.826  1.00  0.00     0.004 A 
ATOM     33  C   UNL     1     115.027 113.867  79.796  1.00  0.00     0.000 A 
ATOM     34  C   UNL     1     113.282 112.341  79.113  1.00  0.00     0.000 A 
ATOM     35  C   UNL     1     114.571 112.564  79.597  1.00  0.00     0.000 A 
ENDBRANCH  29  30
ENDBRANCH   8  29
TORSDOF 6
ENDMDL
MODEL 6
REMARK VINA RESULT:      -9.6      1.439      2.242
REMARK SMILES O=C(Cc1ccccc1)N1CCC([C@@]2(c3ccccn3)NC(=O)N(C[C@@H]3CCCO3)C2=O)CC1
REMARK SMILES IDX 1 1 10 2 13 3 12 4 33 5 11 6 34 7 2 8 14 9 24 10 31 11 22 12
REMARK SMILES IDX 32 13 23 14 21 15 25 17 26 18 30 19 29 20 27 21 28 22 15 23
REMARK SMILES IDX 20 24 16 25 19 26 17 27 18 28 3 29 4 30 5 31 9 32 6 33 8 34
REMARK SMILES IDX 7 35
REMARK H PARENT 21 16
ROOT
ATOM      1  O   UNL     1     114.336 112.110  78.996  1.00  0.00    -0.275 OA
ATOM      2  N   UNL     1     112.075 112.402  79.445  1.00  0.00    -0.342 N 
ATOM      3  C   UNL     1     109.426 112.188  78.281  1.00  0.00     0.034 C 
ATOM      4  C   UNL     1     109.896 113.465  78.995  1.00  0.00     0.028 C 
ATOM      5  C   UNL     1     110.629 111.430  77.701  1.00  0.00     0.028 C 
ATOM      6  C   UNL     1     110.966 113.154  80.042  1.00  0.00     0.120 C 
ATOM      7  C   UNL     1     111.682 111.160  78.774  1.00  0.00     0.120 C 
ATOM      8  C   UNL     1     113.421 112.761  79.507  1.00  0.00     0.226 C 
ENDROOT
BRANCH   3   9
ATOM      9  C   UNL     1     108.413 112.520  77.188  1.00  0.00     0.166 C 
ATOM     10  N   UNL     1     109.275 112.675  74.983  1.00  0.00    -0.259 N 
ATOM     11  C   UNL     1     108.841 111.762  75.920  1.00  0.00     0.263 C 
ATOM     12  C   UNL     1     109.155 113.970  75.450  1.00  0.00     0.325 C 
ATOM     13  O   UNL     1     108.798 110.543  75.804  1.00  0.00    -0.271 OA
ATOM     14  O   UNL     1     109.438 115.004  74.860  1.00  0.00    -0.248 OA
ATOM     15  N   UNL     1     108.630 113.886  76.741  1.00  0.00    -0.318 N 
ATOM     16  H   UNL     1     108.419 114.705  77.301  1.00  0.00     0.166 HD
BRANCH  10  17
ATOM     17  C   UNL     1     109.771 112.340  73.664  1.00  0.00     0.162 C 
BRANCH  17  18
ATOM     18  C   UNL     1     108.652 111.875  72.751  1.00  0.00     0.138 C 
ATOM     19  O   UNL     1     107.695 112.933  72.574  1.00  0.00    -0.376 OA
ATOM     20  C   UNL     1     107.297 112.958  71.195  1.00  0.00     0.160 C 
ATOM     21  C   UNL     1     109.125 111.494  71.359  1.00  0.00     0.036 C 
ATOM     22  C   UNL     1     107.875 111.718  70.545  1.00  0.00     0.031 C 
ENDBRANCH  17  18
ENDBRANCH  10  17
BRANCH   9  23
ATOM     23  C   UNL     1     106.949 112.276  77.523  1.00  0.00     0.076 A 
ATOM     24  N   UNL     1     106.685 111.763  78.746  1.00  0.00    -0.258 NA
ATOM     25  C   UNL     1     105.977 112.581  76.584  1.00  0.00     0.027 A 
ATOM     26  C   UNL     1     105.383 111.550  79.039  1.00  0.00     0.111 A 
ATOM     27  C   UNL     1     104.649 112.348  76.922  1.00  0.00     0.004 A 
ATOM     28  C   UNL     1     104.337 111.823  78.172  1.00  0.00     0.020 A 
ENDBRANCH   9  23
ENDBRANCH   3   9
BRANCH   8  29
ATOM     29  C   UNL     1     113.747 114.031  80.251  1.00  0.00     0.135 C 
BRANCH  29  30
ATOM     30  C   UNL     1     114.383 115.030  79.335  1.00  0.00    -0.039 A 
ATOM     31  C   UNL     1     115.764 115.225  79.367  1.00  0.00     0.004 A 
ATOM     32  C   UNL     1     113.595 115.767  78.451  1.00  0.00     0.004 A 
ATOM     33  C   UNL     1     116.357 116.155  78.513  1.00  0.00     0.000 A 
ATOM     34  C   UNL     1     114.188 116.697  77.598  1.00  0.00     0.000 A 
ATOM     35  C   UNL     1     115.568 116.891  77.629  1.00  0.00     0.000 A 
ENDBRANCH  29  30
ENDBRANCH   8  29
TORSDOF 6
ENDMDL
MODEL 7
REMARK VINA RESULT:      -9.5      1.629      5.058
REMARK SMILES O=C(Cc1ccccc1)N1CCC([C@@]2(c3ccccn3)NC(=O)N(C[C@@H]3CCCO3)C2=O)CC1
REMARK SMILES IDX 1 1 10 2 13 3 12 4 33 5 11 6 34 7 2 8 14 9 24 10 31 11 22 12
REMARK SMILES IDX 32 13 23 14 21 15 25 17 26 18 30 19 29 20 27 21 28 22 15 23
REMARK SMILES IDX 20 24 16 25 19 26 17 27 18 28 3 29 4 30 5 31 9 32 6 33 8 34
REMARK SMILES IDX 7 35
REMARK H PARENT 21 16
ROOT
ATOM      1  O   UNL     1     114.159 112.478  79.075  1.00  0.00    -0.275 OA
ATOM      2  N   UNL     1     111.874 112.874  78.929  1.00  0.00    -0.342 N 
ATOM      3  C   UNL     1     109.454 112.055  77.554  1.00  0.00     0.034 C 
ATOM      4  C   UNL     1     109.866 113.532  77.658  1.00  0.00     0.028 C 
ATOM      5  C   UNL     1     110.695 111.152  77.619  1.00  0.00     0.028 C 
ATOM      6  C   UNL     1     110.722 113.783  78.898  1.00  0.00     0.120 C 
ATOM      7  C   UNL     1     111.533 111.452  78.859  1.00  0.00     0.120 C 
ATOM      8  C   UNL     1     113.207 113.264  79.052  1.00  0.00     0.226 C 
ENDROOT
BRANCH   3   9
ATOM      9  C   UNL     1     108.662 111.801  76.274  1.00  0.00     0.166 C 
ATOM     10  N   UNL     1     106.317 111.557  76.531  1.00  0.00    -0.259 N 
ATOM     11  C   UNL     1     107.307 112.511  76.423  1.00  0.00     0.263 C 
ATOM     12  C   UNL     1     106.836 110.281  76.432  1.00  0.00     0.325 C 
ATOM     13  O   UNL     1     107.170 113.729  76.448  1.00  0.00    -0.271 OA
ATOM     14  O   UNL     1     106.223 109.222  76.474  1.00  0.00    -0.248 OA
ATOM     15  N   UNL     1     108.214 110.418  76.261  1.00  0.00    -0.318 N 
ATOM     16  H   UNL     1     108.833 109.624  76.136  1.00  0.00     0.166 HD
BRANCH  10  17
ATOM     17  C   UNL     1     104.906 111.840  76.700  1.00  0.00     0.162 C 
BRANCH  17  18
ATOM     18  C   UNL     1     104.600 112.322  78.105  1.00  0.00     0.138 C 
ATOM     19  O   UNL     1     103.335 113.004  78.123  1.00  0.00    -0.376 OA
ATOM     20  C   UNL     1     102.625 112.610  79.307  1.00  0.00     0.160 C 
ATOM     21  C   UNL     1     104.490 111.198  79.120  1.00  0.00     0.036 C 
ATOM     22  C   UNL     1     103.593 111.820  80.161  1.00  0.00     0.031 C 
ENDBRANCH  17  18
ENDBRANCH  10  17
BRANCH   9  23
ATOM     23  C   UNL     1     109.350 112.169  74.967  1.00  0.00     0.076 A 
ATOM     24  N   UNL     1     108.773 113.148  74.233  1.00  0.00    -0.258 NA
ATOM     25  C   UNL     1     110.507 111.502  74.598  1.00  0.00     0.027 A 
ATOM     26  C   UNL     1     109.390 113.471  73.075  1.00  0.00     0.111 A 
ATOM     27  C   UNL     1     111.112 111.863  73.399  1.00  0.00     0.004 A 
ATOM     28  C   UNL     1     110.549 112.866  72.617  1.00  0.00     0.020 A 
ENDBRANCH   9  23
ENDBRANCH   3   9
BRANCH   8  29
ATOM     29  C   UNL     1     113.471 114.744  79.159  1.00  0.00     0.135 C 
BRANCH  29  30
ATOM     30  C   UNL     1     114.905 115.000  79.507  1.00  0.00    -0.039 A 
ATOM     31  C   UNL     1     115.320 114.952  80.837  1.00  0.00     0.004 A 
ATOM     32  C   UNL     1     115.826 115.288  78.499  1.00  0.00     0.004 A 
ATOM     33  C   UNL     1     116.656 115.191  81.161  1.00  0.00     0.000 A 
ATOM     34  C   UNL     1     117.162 115.526  78.822  1.00  0.00     0.000 A 
ATOM     35  C   UNL     1     117.576 115.478  80.152  1.00  0.00     0.000 A 
ENDBRANCH  29  30
ENDBRANCH   8  29
TORSDOF 6
ENDMDL
MODEL 8
REMARK VINA RESULT:      -9.4      2.791      5.600
REMARK SMILES O=C(Cc1ccccc1)N1CCC([C@@]2(c3ccccn3)NC(=O)N(C[C@@H]3CCCO3)C2=O)CC1
REMARK SMILES IDX 1 1 10 2 13 3 12 4 33 5 11 6 34 7 2 8 14 9 24 10 31 11 22 12
REMARK SMILES IDX 32 13 23 14 21 15 25 17 26 18 30 19 29 20 27 21 28 22 15 23
REMARK SMILES IDX 20 24 16 25 19 26 17 27 18 28 3 29 4 30 5 31 9 32 6 33 8 34
REMARK SMILES IDX 7 35
REMARK H PARENT 21 16
ROOT
ATOM      1  O   UNL     1     117.186 115.630  79.632  1.00  0.00    -0.275 OA
ATOM      2  N   UNL     1     115.606 114.299  78.569  1.00  0.00    -0.342 N 
ATOM      3  C   UNL     1     112.779 113.651  78.499  1.00  0.00     0.034 C 
ATOM      4  C   UNL     1     113.857 112.561  78.609  1.00  0.00     0.028 C 
ATOM      5  C   UNL     1     113.294 114.969  79.095  1.00  0.00     0.028 C 
ATOM      6  C   UNL     1     115.176 113.021  77.990  1.00  0.00     0.120 C 
ATOM      7  C   UNL     1     114.622 115.379  78.466  1.00  0.00     0.120 C 
ATOM      8  C   UNL     1     116.849 114.544  79.151  1.00  0.00     0.226 C 
ENDROOT
BRANCH   3   9
ATOM      9  C   UNL     1     111.489 113.209  79.186  1.00  0.00     0.166 C 
ATOM     10  N   UNL     1     109.473 113.722  78.046  1.00  0.00    -0.259 N 
ATOM     11  C   UNL     1     110.497 112.801  78.084  1.00  0.00     0.263 C 
ATOM     12  C   UNL     1     109.630 114.690  79.020  1.00  0.00     0.325 C 
ATOM     13  O   UNL     1     110.635 111.814  77.370  1.00  0.00    -0.271 OA
ATOM     14  O   UNL     1     108.891 115.635  79.258  1.00  0.00    -0.248 OA
ATOM     15  N   UNL     1     110.806 114.381  79.707  1.00  0.00    -0.318 N 
ATOM     16  H   UNL     1     111.138 114.926  80.496  1.00  0.00     0.166 HD
BRANCH  10  17
ATOM     17  C   UNL     1     108.354 113.683  77.127  1.00  0.00     0.162 C 
BRANCH  17  18
ATOM     18  C   UNL     1     107.523 112.429  77.316  1.00  0.00     0.138 C 
ATOM     19  O   UNL     1     107.215 112.252  78.709  1.00  0.00    -0.376 OA
ATOM     20  C   UNL     1     105.849 111.825  78.820  1.00  0.00     0.160 C 
ATOM     21  C   UNL     1     106.190 112.469  76.589  1.00  0.00     0.036 C 
ATOM     22  C   UNL     1     105.366 111.517  77.419  1.00  0.00     0.031 C 
ENDBRANCH  17  18
ENDBRANCH  10  17
BRANCH   9  23
ATOM     23  C   UNL     1     111.623 112.131  80.251  1.00  0.00     0.076 A 
ATOM     24  N   UNL     1     111.964 110.894  79.823  1.00  0.00    -0.258 NA
ATOM     25  C   UNL     1     111.395 112.456  81.579  1.00  0.00     0.027 A 
ATOM     26  C   UNL     1     112.083 109.941  80.774  1.00  0.00     0.111 A 
ATOM     27  C   UNL     1     111.527 111.449  82.528  1.00  0.00     0.004 A 
ATOM     28  C   UNL     1     111.878 110.164  82.125  1.00  0.00     0.020 A 
ENDBRANCH   9  23
ENDBRANCH   3   9
BRANCH   8  29
ATOM     29  C   UNL     1     117.820 113.391  79.182  1.00  0.00     0.135 C 
BRANCH  29  30
ATOM     30  C   UNL     1     118.567 113.366  80.479  1.00  0.00    -0.039 A 
ATOM     31  C   UNL     1     118.101 114.103  81.567  1.00  0.00     0.004 A 
ATOM     32  C   UNL     1     119.731 112.605  80.598  1.00  0.00     0.004 A 
ATOM     33  C   UNL     1     118.798 114.079  82.776  1.00  0.00     0.000 A 
ATOM     34  C   UNL     1     120.427 112.581  81.807  1.00  0.00     0.000 A 
ATOM     35  C   UNL     1     119.961 113.318  82.894  1.00  0.00     0.000 A 
ENDBRANCH  29  30
ENDBRANCH   8  29
TORSDOF 6
ENDMDL
MODEL 9
REMARK VINA RESULT:      -9.2      1.814      2.507
REMARK SMILES O=C(Cc1ccccc1)N1CCC([C@@]2(c3ccccn3)NC(=O)N(C[C@@H]3CCCO3)C2=O)CC1
REMARK SMILES IDX 1 1 10 2 13 3 12 4 33 5 11 6 34 7 2 8 14 9 24 10 31 11 22 12
REMARK SMILES IDX 32 13 23 14 21 15 25 17 26 18 30 19 29 20 27 21 28 22 15 23
REMARK SMILES IDX 20 24 16 25 19 26 17 27 18 28 3 29 4 30 5 31 9 32 6 33 8 34
REMARK SMILES IDX 7 35
REMARK H PARENT 21 16
ROOT
ATOM      1  O   UNL     1     111.245 114.237  81.136  1.00  0.00    -0.275 OA
ATOM      2  N   UNL     1     110.294 114.828  79.101  1.00  0.00    -0.342 N 
ATOM      3  C   UNL     1     108.653 113.835  76.924  1.00  0.00     0.034 C 
ATOM      4  C   UNL     1     110.006 114.517  76.672  1.00  0.00     0.028 C 
ATOM      5  C   UNL     1     108.639 113.180  78.313  1.00  0.00     0.028 C 
ATOM      6  C   UNL     1     110.354 115.494  77.794  1.00  0.00     0.120 C 
ATOM      7  C   UNL     1     109.013 114.184  79.401  1.00  0.00     0.120 C 
ATOM      8  C   UNL     1     111.321 114.805  80.043  1.00  0.00     0.226 C 
ENDROOT
BRANCH   3   9
ATOM      9  C   UNL     1     108.352 112.807  75.835  1.00  0.00     0.166 C 
ATOM     10  N   UNL     1     110.040 112.500  74.198  1.00  0.00    -0.259 N 
ATOM     11  C   UNL     1     109.678 112.120  75.472  1.00  0.00     0.263 C 
ATOM     12  C   UNL     1     109.094 113.335  73.634  1.00  0.00     0.325 C 
ATOM     13  O   UNL     1     110.289 111.370  76.225  1.00  0.00    -0.271 OA
ATOM     14  O   UNL     1     109.111 113.833  72.517  1.00  0.00    -0.248 OA
ATOM     15  N   UNL     1     108.088 113.504  74.587  1.00  0.00    -0.318 N 
ATOM     16  H   UNL     1     107.255 114.058  74.413  1.00  0.00     0.166 HD
BRANCH  10  17
ATOM     17  C   UNL     1     111.241 112.068  73.511  1.00  0.00     0.162 C 
BRANCH  17  18
ATOM     18  C   UNL     1     111.531 110.602  73.768  1.00  0.00     0.138 C 
ATOM     19  O   UNL     1     111.807 109.933  72.526  1.00  0.00    -0.376 OA
ATOM     20  C   UNL     1     112.907 109.033  72.731  1.00  0.00     0.160 C 
ATOM     21  C   UNL     1     112.744 110.371  74.653  1.00  0.00     0.036 C 
ATOM     22  C   UNL     1     113.172 108.991  74.221  1.00  0.00     0.031 C 
ENDBRANCH  17  18
ENDBRANCH  10  17
BRANCH   9  23
ATOM     23  C   UNL     1     107.258 111.795  76.142  1.00  0.00     0.076 A 
ATOM     24  N   UNL     1     106.215 112.235  76.883  1.00  0.00    -0.258 NA
ATOM     25  C   UNL     1     107.375 110.501  75.662  1.00  0.00     0.027 A 
ATOM     26  C   UNL     1     105.246 111.332  77.152  1.00  0.00     0.111 A 
ATOM     27  C   UNL     1     106.359 109.601  75.959  1.00  0.00     0.004 A 
ATOM     28  C   UNL     1     105.270 110.017  76.718  1.00  0.00     0.020 A 
ENDBRANCH   9  23
ENDBRANCH   3   9
BRANCH   8  29
ATOM     29  C   UNL     1     112.592 115.526  79.675  1.00  0.00     0.135 C 
BRANCH  29  30
ATOM     30  C   UNL     1     113.728 114.560  79.546  1.00  0.00    -0.039 A 
ATOM     31  C   UNL     1     113.585 113.414  78.763  1.00  0.00     0.004 A 
ATOM     32  C   UNL     1     114.930 114.804  80.210  1.00  0.00     0.004 A 
ATOM     33  C   UNL     1     114.643 112.514  78.643  1.00  0.00     0.000 A 
ATOM     34  C   UNL     1     115.989 113.904  80.090  1.00  0.00     0.000 A 
ATOM     35  C   UNL     1     115.845 112.759  79.307  1.00  0.00     0.000 A 
ENDBRANCH  29  30
ENDBRANCH   8  29
TORSDOF 6
ENDMDL
MODEL 10
REMARK VINA RESULT:      -9.0      2.044      8.201
REMARK SMILES O=C(Cc1ccccc1)N1CCC([C@@]2(c3ccccn3)NC(=O)N(C[C@@H]3CCCO3)C2=O)CC1
REMARK SMILES IDX 1 1 10 2 13 3 12 4 33 5 11 6 34 7 2 8 14 9 24 10 31 11 22 12
REMARK SMILES IDX 32 13 23 14 21 15 25 17 26 18 30 19 29 20 27 21 28 22 15 23
REMARK SMILES IDX 20 24 16 25 19 26 17 27 18 28 3 29 4 30 5 31 9 32 6 33 8 34
REMARK SMILES IDX 7 35
REMARK H PARENT 21 16
ROOT
ATOM      1  O   UNL     1     107.956 110.810  75.947  1.00  0.00    -0.275 OA
ATOM      2  N   UNL     1     109.621 112.407  76.223  1.00  0.00    -0.342 N 
ATOM      3  C   UNL     1     112.225 112.869  77.415  1.00  0.00     0.034 C 
ATOM      4  C   UNL     1     111.046 113.827  77.648  1.00  0.00     0.028 C 
ATOM      5  C   UNL     1     111.709 111.453  77.120  1.00  0.00     0.028 C 
ATOM      6  C   UNL     1     110.057 113.783  76.485  1.00  0.00     0.120 C 
ATOM      7  C   UNL     1     110.708 111.459  75.968  1.00  0.00     0.120 C 
ATOM      8  C   UNL     1     108.296 111.976  76.168  1.00  0.00     0.226 C 
ENDROOT
BRANCH   3   9
ATOM      9  C   UNL     1     113.167 112.866  78.617  1.00  0.00     0.166 C 
ATOM     10  N   UNL     1     115.008 114.358  78.502  1.00  0.00    -0.259 N 
ATOM     11  C   UNL     1     113.666 114.307  78.814  1.00  0.00     0.263 C 
ATOM     12  C   UNL     1     115.490 113.111  78.152  1.00  0.00     0.325 C 
ATOM     13  O   UNL     1     112.954 115.234  79.182  1.00  0.00    -0.271 OA
ATOM     14  O   UNL     1     116.636 112.817  77.837  1.00  0.00    -0.248 OA
ATOM     15  N   UNL     1     114.415 112.225  78.237  1.00  0.00    -0.318 N 
ATOM     16  H   UNL     1     114.508 111.231  78.055  1.00  0.00     0.166 HD
BRANCH  10  17
ATOM     17  C   UNL     1     115.828 115.551  78.552  1.00  0.00     0.162 C 
BRANCH  17  18
ATOM     18  C   UNL     1     116.689 115.580  79.800  1.00  0.00     0.138 C 
ATOM     19  O   UNL     1     116.327 114.494  80.669  1.00  0.00    -0.376 OA
ATOM     20  C   UNL     1     117.530 113.925  81.208  1.00  0.00     0.160 C 
ATOM     21  C   UNL     1     118.173 115.420  79.517  1.00  0.00     0.036 C 
ATOM     22  C   UNL     1     118.667 114.846  80.820  1.00  0.00     0.031 C 
ENDBRANCH  17  18
ENDBRANCH  10  17
BRANCH   9  23
ATOM     23  C   UNL     1     112.617 112.278  79.908  1.00  0.00     0.076 A 
ATOM     24  N   UNL     1     111.719 113.032  80.583  1.00  0.00    -0.258 NA
ATOM     25  C   UNL     1     113.049 111.029  80.324  1.00  0.00     0.027 A 
ATOM     26  C   UNL     1     111.232 112.504  81.728  1.00  0.00     0.111 A 
ATOM     27  C   UNL     1     112.526 110.520  81.507  1.00  0.00     0.004 A 
ATOM     28  C   UNL     1     111.599 111.265  82.229  1.00  0.00     0.020 A 
ENDBRANCH   9  23
ENDBRANCH   3   9
BRANCH   8  29
ATOM     29  C   UNL     1     107.236 113.021  76.402  1.00  0.00     0.135 C 
BRANCH  29  30
ATOM     30  C   UNL     1     106.163 112.492  77.302  1.00  0.00    -0.039 A 
ATOM     31  C   UNL     1     104.856 112.366  76.831  1.00  0.00     0.004 A 
ATOM     32  C   UNL     1     106.470 112.126  78.613  1.00  0.00     0.004 A 
ATOM     33  C   UNL     1     103.856 111.872  77.669  1.00  0.00     0.000 A 
ATOM     34  C   UNL     1     105.470 111.632  79.451  1.00  0.00     0.000 A 
ATOM     35  C   UNL     1     104.164 111.506  78.980  1.00  0.00     0.000 A 
ENDBRANCH  29  30
ENDBRANCH   8  29
TORSDOF 6
ENDMDL
MODEL 11
REMARK VINA RESULT:      -8.9      2.143      3.184
REMARK SMILES O=C(Cc1ccccc1)N1CCC([C@@]2(c3ccccn3)NC(=O)N(C[C@@H]3CCCO3)C2=O)CC1
REMARK SMILES IDX 1 1 10 2 13 3 12 4 33 5 11 6 34 7 2 8 14 9 24 10 31 11 22 12
REMARK SMILES IDX 32 13 23 14 21 15 25 17 26 18 30 19 29 20 27 21 28 22 15 23
REMARK SMILES IDX 20 24 16 25 19 26 17 27 18 28 3 29 4 30 5 31 9 32 6 33 8 34
REMARK SMILES IDX 7 35
REMARK H PARENT 21 16
ROOT
ATOM      1  O   UNL     1     110.860 115.233  81.008  1.00  0.00    -0.275 OA
ATOM      2  N   UNL     1     110.923 114.644  78.761  1.00  0.00    -0.342 N 
ATOM      3  C   UNL     1     109.285 113.719  76.552  1.00  0.00     0.034 C 
ATOM      4  C   UNL     1     110.596 113.016  76.938  1.00  0.00     0.028 C 
ATOM      5  C   UNL     1     108.675 114.414  77.778  1.00  0.00     0.028 C 
ATOM      6  C   UNL     1     111.564 113.982  77.619  1.00  0.00     0.120 C 
ATOM      7  C   UNL     1     109.681 115.351  78.441  1.00  0.00     0.120 C 
ATOM      8  C   UNL     1     111.420 114.669  80.064  1.00  0.00     0.226 C 
ENDROOT
BRANCH   3   9
ATOM      9  C   UNL     1     108.298 112.728  75.941  1.00  0.00     0.166 C 
ATOM     10  N   UNL     1     109.112 111.430  74.130  1.00  0.00    -0.259 N 
ATOM     11  C   UNL     1     109.099 111.489  75.507  1.00  0.00     0.263 C 
ATOM     12  C   UNL     1     108.379 112.462  73.575  1.00  0.00     0.325 C 
ATOM     13  O   UNL     1     109.633 110.710  76.288  1.00  0.00    -0.271 OA
ATOM     14  O   UNL     1     108.183 112.683  72.388  1.00  0.00    -0.248 OA
ATOM     15  N   UNL     1     107.881 113.218  74.638  1.00  0.00    -0.318 N 
ATOM     16  H   UNL     1     107.283 114.027  74.502  1.00  0.00     0.166 HD
BRANCH  10  17
ATOM     17  C   UNL     1     109.780 110.409  73.348  1.00  0.00     0.162 C 
BRANCH  17  18
ATOM     18  C   UNL     1     111.286 110.589  73.372  1.00  0.00     0.138 C 
ATOM     19  O   UNL     1     111.630 111.721  74.188  1.00  0.00    -0.376 OA
ATOM     20  C   UNL     1     112.782 111.380  74.974  1.00  0.00     0.160 C 
ATOM     21  C   UNL     1     112.028 109.401  73.961  1.00  0.00     0.036 C 
ATOM     22  C   UNL     1     113.295 110.054  74.455  1.00  0.00     0.031 C 
ENDBRANCH  17  18
ENDBRANCH  10  17
BRANCH   9  23
ATOM     23  C   UNL     1     107.098 112.351  76.797  1.00  0.00     0.076 A 
ATOM     24  N   UNL     1     105.877 112.603  76.274  1.00  0.00    -0.258 NA
ATOM     25  C   UNL     1     107.304 111.781  78.043  1.00  0.00     0.027 A 
ATOM     26  C   UNL     1     104.815 112.266  77.039  1.00  0.00     0.111 A 
ATOM     27  C   UNL     1     106.188 111.447  78.800  1.00  0.00     0.004 A 
ATOM     28  C   UNL     1     104.915 111.691  78.295  1.00  0.00     0.020 A 
ENDBRANCH   9  23
ENDBRANCH   3   9
BRANCH   8  29
ATOM     29  C   UNL     1     112.724 113.951  80.303  1.00  0.00     0.135 C 
BRANCH  29  30
ATOM     30  C   UNL     1     112.479 112.519  80.664  1.00  0.00    -0.039 A 
ATOM     31  C   UNL     1     113.500 111.579  80.523  1.00  0.00     0.004 A 
ATOM     32  C   UNL     1     111.228 112.124  81.139  1.00  0.00     0.004 A 
ATOM     33  C   UNL     1     113.272 110.245  80.859  1.00  0.00     0.000 A 
ATOM     34  C   UNL     1     111.000 110.790  81.475  1.00  0.00     0.000 A 
ATOM     35  C   UNL     1     112.021 109.851  81.335  1.00  0.00     0.000 A 
ENDBRANCH  29  30
ENDBRANCH   8  29
TORSDOF 6
ENDMDL
MODEL 12
REMARK VINA RESULT:      -8.8      2.838      5.311
REMARK SMILES O=C(Cc1ccccc1)N1CCC([C@@]2(c3ccccn3)NC(=O)N(C[C@@H]3CCCO3)C2=O)CC1
REMARK SMILES IDX 1 1 10 2 13 3 12 4 33 5 11 6 34 7 2 8 14 9 24 10 31 11 22 12
REMARK SMILES IDX 32 13 23 14 21 15 25 17 26 18 30 19 29 20 27 21 28 22 15 23
REMARK SMILES IDX 20 24 16 25 19 26 17 27 18 28 3 29 4 30 5 31 9 32 6 33 8 34
REMARK SMILES IDX 7 35
REMARK H PARENT 21 16
ROOT
ATOM      1  O   UNL     1     117.622 115.389  80.116  1.00  0.00    -0.275 OA
ATOM      2  N   UNL     1     116.150 114.227  78.744  1.00  0.00    -0.342 N 
ATOM      3  C   UNL     1     113.339 113.664  78.296  1.00  0.00     0.034 C 
ATOM      4  C   UNL     1     114.384 112.542  78.396  1.00  0.00     0.028 C 
ATOM      5  C   UNL     1     113.803 114.894  79.092  1.00  0.00     0.028 C 
ATOM      6  C   UNL     1     115.769 113.034  77.979  1.00  0.00     0.120 C 
ATOM      7  C   UNL     1     115.198 115.337  78.660  1.00  0.00     0.120 C 
ATOM      8  C   UNL     1     117.325 114.374  79.480  1.00  0.00     0.226 C 
ENDROOT
BRANCH   3   9
ATOM      9  C   UNL     1     111.976 113.182  78.786  1.00  0.00     0.166 C 
ATOM     10  N   UNL     1     110.206 113.288  77.210  1.00  0.00    -0.259 N 
ATOM     11  C   UNL     1     111.273 112.506  77.597  1.00  0.00     0.263 C 
ATOM     12  C   UNL     1     110.076 114.398  78.022  1.00  0.00     0.325 C 
ATOM     13  O   UNL     1     111.638 111.448  77.098  1.00  0.00    -0.271 OA
ATOM     14  O   UNL     1     109.226 115.277  77.952  1.00  0.00    -0.248 OA
ATOM     15  N   UNL     1     111.104 114.331  78.964  1.00  0.00    -0.318 N 
ATOM     16  H   UNL     1     111.218 115.020  79.700  1.00  0.00     0.166 HD
BRANCH  10  17
ATOM     17  C   UNL     1     109.310 112.986  76.112  1.00  0.00     0.162 C 
BRANCH  17  18
ATOM     18  C   UNL     1     109.975 113.227  74.771  1.00  0.00     0.138 C 
ATOM     19  O   UNL     1     110.279 111.970  74.144  1.00  0.00    -0.376 OA
ATOM     20  C   UNL     1     109.967 112.073  72.746  1.00  0.00     0.160 C 
ATOM     21  C   UNL     1     109.101 113.989  73.789  1.00  0.00     0.036 C 
ATOM     22  C   UNL     1     109.662 113.530  72.467  1.00  0.00     0.031 C 
ENDBRANCH  17  18
ENDBRANCH  10  17
BRANCH   9  23
ATOM     23  C   UNL     1     111.975 112.294  80.022  1.00  0.00     0.076 A 
ATOM     24  N   UNL     1     112.554 111.079  79.895  1.00  0.00    -0.258 NA
ATOM     25  C   UNL     1     111.394 112.757  81.191  1.00  0.00     0.027 A 
ATOM     26  C   UNL     1     112.552 110.295  80.996  1.00  0.00     0.111 A 
ATOM     27  C   UNL     1     111.411 111.923  82.302  1.00  0.00     0.004 A 
ATOM     28  C   UNL     1     111.999 110.665  82.211  1.00  0.00     0.020 A 
ENDBRANCH   9  23
ENDBRANCH   3   9
BRANCH   8  29
ATOM     29  C   UNL     1     118.271 113.199  79.483  1.00  0.00     0.135 C 
BRANCH  29  30
ATOM     30  C   UNL     1     119.022 113.131  80.776  1.00  0.00    -0.039 A 
ATOM     31  C   UNL     1     120.258 112.487  80.832  1.00  0.00     0.004 A 
ATOM     32  C   UNL     1     118.485 113.711  81.926  1.00  0.00     0.004 A 
ATOM     33  C   UNL     1     120.958 112.424  82.037  1.00  0.00     0.000 A 
ATOM     34  C   UNL     1     119.185 113.648  83.131  1.00  0.00     0.000 A 
ATOM     35  C   UNL     1     120.421 113.004  83.186  1.00  0.00     0.000 A 
ENDBRANCH  29  30
ENDBRANCH   8  29
TORSDOF 6
ENDMDL
MODEL 13
REMARK VINA RESULT:      -8.8      2.157      5.235
REMARK SMILES O=C(Cc1ccccc1)N1CCC([C@@]2(c3ccccn3)NC(=O)N(C[C@@H]3CCCO3)C2=O)CC1
REMARK SMILES IDX 1 1 10 2 13 3 12 4 33 5 11 6 34 7 2 8 14 9 24 10 31 11 22 12
REMARK SMILES IDX 32 13 23 14 21 15 25 17 26 18 30 19 29 20 27 21 28 22 15 23
REMARK SMILES IDX 20 24 16 25 19 26 17 27 18 28 3 29 4 30 5 31 9 32 6 33 8 34
REMARK SMILES IDX 7 35
REMARK H PARENT 21 16
ROOT
ATOM      1  O   UNL     1     110.964 112.229  81.038  1.00  0.00    -0.275 OA
ATOM      2  N   UNL     1     110.854 112.764  78.779  1.00  0.00    -0.342 N 
ATOM      3  C   UNL     1     109.078 112.826  76.487  1.00  0.00     0.034 C 
ATOM      4  C   UNL     1     110.457 112.152  76.424  1.00  0.00     0.028 C 
ATOM      5  C   UNL     1     108.543 112.807  77.926  1.00  0.00     0.028 C 
ATOM      6  C   UNL     1     111.426 112.776  77.428  1.00  0.00     0.120 C 
ATOM      7  C   UNL     1     109.549 113.419  78.898  1.00  0.00     0.120 C 
ATOM      8  C   UNL     1     111.467 112.227  79.911  1.00  0.00     0.226 C 
ENDROOT
BRANCH   3   9
ATOM      9  C   UNL     1     108.098 112.145  75.534  1.00  0.00     0.166 C 
ATOM     10  N   UNL     1     106.246 111.060  76.544  1.00  0.00    -0.259 N 
ATOM     11  C   UNL     1     106.691 112.299  76.134  1.00  0.00     0.263 C 
ATOM     12  C   UNL     1     107.170 110.074  76.256  1.00  0.00     0.325 C 
ATOM     13  O   UNL     1     106.098 113.367  76.225  1.00  0.00    -0.271 OA
ATOM     14  O   UNL     1     107.074 108.874  76.477  1.00  0.00    -0.248 OA
ATOM     15  N   UNL     1     108.255 110.705  75.643  1.00  0.00    -0.318 N 
ATOM     16  H   UNL     1     109.066 110.196  75.306  1.00  0.00     0.166 HD
BRANCH  10  17
ATOM     17  C   UNL     1     104.967 110.802  77.173  1.00  0.00     0.162 C 
BRANCH  17  18
ATOM     18  C   UNL     1     104.669 111.815  78.261  1.00  0.00     0.138 C 
ATOM     19  O   UNL     1     103.580 112.661  77.857  1.00  0.00    -0.376 OA
ATOM     20  C   UNL     1     102.719 112.863  78.988  1.00  0.00     0.160 C 
ATOM     21  C   UNL     1     104.249 111.184  79.578  1.00  0.00     0.036 C 
ATOM     22  C   UNL     1     103.432 112.291  80.194  1.00  0.00     0.031 C 
ENDBRANCH  17  18
ENDBRANCH  10  17
BRANCH   9  23
ATOM     23  C   UNL     1     108.142 112.595  74.081  1.00  0.00     0.076 A 
ATOM     24  N   UNL     1     107.248 112.025  73.241  1.00  0.00    -0.258 NA
ATOM     25  C   UNL     1     109.074 113.544  73.692  1.00  0.00     0.027 A 
ATOM     26  C   UNL     1     107.292 112.430  71.953  1.00  0.00     0.111 A 
ATOM     27  C   UNL     1     109.089 113.935  72.358  1.00  0.00     0.004 A 
ATOM     28  C   UNL     1     108.183 113.372  71.465  1.00  0.00     0.020 A 
ENDBRANCH   9  23
ENDBRANCH   3   9
BRANCH   8  29
ATOM     29  C   UNL     1     112.827 111.607  79.712  1.00  0.00     0.135 C 
BRANCH  29  30
ATOM     30  C   UNL     1     113.868 112.668  79.531  1.00  0.00    -0.039 A 
ATOM     31  C   UNL     1     113.816 113.835  80.293  1.00  0.00     0.004 A 
ATOM     32  C   UNL     1     114.889 112.491  78.597  1.00  0.00     0.004 A 
ATOM     33  C   UNL     1     114.785 114.823  80.124  1.00  0.00     0.000 A 
ATOM     34  C   UNL     1     115.859 113.479  78.428  1.00  0.00     0.000 A 
ATOM     35  C   UNL     1     115.807 114.645  79.191  1.00  0.00     0.000 A 
ENDBRANCH  29  30
ENDBRANCH   8  29
TORSDOF 6
ENDMDL
MODEL 14
REMARK VINA RESULT:      -8.7      2.567      7.818
REMARK SMILES O=C(Cc1ccccc1)N1CCC([C@@]2(c3ccccn3)NC(=O)N(C[C@@H]3CCCO3)C2=O)CC1
REMARK SMILES IDX 1 1 10 2 13 3 12 4 33 5 11 6 34 7 2 8 14 9 24 10 31 11 22 12
REMARK SMILES IDX 32 13 23 14 21 15 25 17 26 18 30 19 29 20 27 21 28 22 15 23
REMARK SMILES IDX 20 24 16 25 19 26 17 27 18 28 3 29 4 30 5 31 9 32 6 33 8 34
REMARK SMILES IDX 7 35
REMARK H PARENT 21 16
ROOT
ATOM      1  O   UNL     1     109.504 115.081  74.357  1.00  0.00    -0.275 OA
ATOM      2  N   UNL     1     109.440 114.085  76.455  1.00  0.00    -0.342 N 
ATOM      3  C   UNL     1     111.047 113.483  78.795  1.00  0.00     0.034 C 
ATOM      4  C   UNL     1     110.220 112.402  78.080  1.00  0.00     0.028 C 
ATOM      5  C   UNL     1     111.436 114.593  77.807  1.00  0.00     0.028 C 
ATOM      6  C   UNL     1     109.017 113.009  77.360  1.00  0.00     0.120 C 
ATOM      7  C   UNL     1     110.209 115.155  77.095  1.00  0.00     0.120 C 
ATOM      8  C   UNL     1     109.135 114.164  75.097  1.00  0.00     0.226 C 
ENDROOT
BRANCH   3   9
ATOM      9  C   UNL     1     112.286 112.875  79.447  1.00  0.00     0.166 C 
ATOM     10  N   UNL     1     114.305 114.091  79.182  1.00  0.00    -0.259 N 
ATOM     11  C   UNL     1     113.159 114.038  79.946  1.00  0.00     0.263 C 
ATOM     12  C   UNL     1     114.332 113.076  78.245  1.00  0.00     0.325 C 
ATOM     13  O   UNL     1     112.849 114.781  80.871  1.00  0.00    -0.271 OA
ATOM     14  O   UNL     1     115.212 112.839  77.428  1.00  0.00    -0.248 OA
ATOM     15  N   UNL     1     113.155 112.344  78.410  1.00  0.00    -0.318 N 
ATOM     16  H   UNL     1     112.939 111.521  77.858  1.00  0.00     0.166 HD
BRANCH  10  17
ATOM     17  C   UNL     1     115.367 115.064  79.342  1.00  0.00     0.162 C 
BRANCH  17  18
ATOM     18  C   UNL     1     116.444 114.561  80.283  1.00  0.00     0.138 C 
ATOM     19  O   UNL     1     117.690 114.436  79.576  1.00  0.00    -0.376 OA
ATOM     20  C   UNL     1     118.743 114.917  80.426  1.00  0.00     0.160 C 
ATOM     21  C   UNL     1     116.711 115.493  81.452  1.00  0.00     0.036 C 
ATOM     22  C   UNL     1     118.137 115.143  81.795  1.00  0.00     0.031 C 
ENDBRANCH  17  18
ENDBRANCH  10  17
BRANCH   9  23
ATOM     23  C   UNL     1     112.041 111.845  80.541  1.00  0.00     0.076 A 
ATOM     24  N   UNL     1     112.400 110.571  80.265  1.00  0.00    -0.258 NA
ATOM     25  C   UNL     1     111.474 112.249  81.739  1.00  0.00     0.027 A 
ATOM     26  C   UNL     1     112.181 109.661  81.240  1.00  0.00     0.111 A 
ATOM     27  C   UNL     1     111.264 111.284  82.717  1.00  0.00     0.004 A 
ATOM     28  C   UNL     1     111.622 109.963  82.471  1.00  0.00     0.020 A 
ENDBRANCH   9  23
ENDBRANCH   3   9
BRANCH   8  29
ATOM     29  C   UNL     1     108.305 113.044  74.525  1.00  0.00     0.135 C 
BRANCH  29  30
ATOM     30  C   UNL     1     109.162 112.102  73.737  1.00  0.00    -0.039 A 
ATOM     31  C   UNL     1     108.731 111.639  72.494  1.00  0.00     0.004 A 
ATOM     32  C   UNL     1     110.391 111.685  74.248  1.00  0.00     0.004 A 
ATOM     33  C   UNL     1     109.529 110.762  71.760  1.00  0.00     0.000 A 
ATOM     34  C   UNL     1     111.190 110.808  73.515  1.00  0.00     0.000 A 
ATOM     35  C   UNL     1     110.759 110.346  72.272  1.00  0.00     0.000 A 
ENDBRANCH  29  30
ENDBRANCH   8  29
TORSDOF 6
ENDMDL
MODEL 15
REMARK VINA RESULT:      -8.7      2.391      4.488
REMARK SMILES O=C(Cc1ccccc1)N1CCC([C@@]2(c3ccccn3)NC(=O)N(C[C@@H]3CCCO3)C2=O)CC1
REMARK SMILES IDX 1 1 10 2 13 3 12 4 33 5 11 6 34 7 2 8 14 9 24 10 31 11 22 12
REMARK SMILES IDX 32 13 23 14 21 15 25 17 26 18 30 19 29 20 27 21 28 22 15 23
REMARK SMILES IDX 20 24 16 25 19 26 17 27 18 28 3 29 4 30 5 31 9 32 6 33 8 34
REMARK SMILES IDX 7 35
REMARK H PARENT 21 16
ROOT
ATOM      1  O   UNL     1     111.264 112.457  81.127  1.00  0.00    -0.275 OA
ATOM      2  N   UNL     1     110.319 113.273  79.167  1.00  0.00    -0.342 N 
ATOM      3  C   UNL     1     109.304 112.479  76.568  1.00  0.00     0.034 C 
ATOM      4  C   UNL     1     110.342 113.601  76.724  1.00  0.00     0.028 C 
ATOM      5  C   UNL     1     109.421 111.483  77.731  1.00  0.00     0.028 C 
ATOM      6  C   UNL     1     110.236 114.270  78.094  1.00  0.00     0.120 C 
ATOM      7  C   UNL     1     109.332 112.194  79.079  1.00  0.00     0.120 C 
ATOM      8  C   UNL     1     111.214 113.309  80.236  1.00  0.00     0.226 C 
ENDROOT
BRANCH   3   9
ATOM      9  C   UNL     1     109.469 111.770  75.226  1.00  0.00     0.166 C 
ATOM     10  N   UNL     1     107.855 112.291  73.567  1.00  0.00    -0.259 N 
ATOM     11  C   UNL     1     109.026 112.752  74.129  1.00  0.00     0.263 C 
ATOM     12  C   UNL     1     107.470 111.087  74.126  1.00  0.00     0.325 C 
ATOM     13  O   UNL     1     109.637 113.774  73.838  1.00  0.00    -0.271 OA
ATOM     14  O   UNL     1     106.489 110.413  73.841  1.00  0.00    -0.248 OA
ATOM     15  N   UNL     1     108.427 110.766  75.090  1.00  0.00    -0.318 N 
ATOM     16  H   UNL     1     108.392 109.909  75.634  1.00  0.00     0.166 HD
BRANCH  10  17
ATOM     17  C   UNL     1     107.123 112.955  72.508  1.00  0.00     0.162 C 
BRANCH  17  18
ATOM     18  C   UNL     1     107.804 112.776  71.165  1.00  0.00     0.138 C 
ATOM     19  O   UNL     1     108.550 113.960  70.834  1.00  0.00    -0.376 OA
ATOM     20  C   UNL     1     109.806 113.560  70.265  1.00  0.00     0.160 C 
ATOM     21  C   UNL     1     108.798 111.628  71.138  1.00  0.00     0.036 C 
ATOM     22  C   UNL     1     109.732 112.065  70.038  1.00  0.00     0.031 C 
ENDBRANCH  17  18
ENDBRANCH  10  17
BRANCH   9  23
ATOM     23  C   UNL     1     110.842 111.181  74.935  1.00  0.00     0.076 A 
ATOM     24  N   UNL     1     111.831 111.490  75.804  1.00  0.00    -0.258 NA
ATOM     25  C   UNL     1     111.013 110.376  73.820  1.00  0.00     0.027 A 
ATOM     26  C   UNL     1     113.047 110.963  75.540  1.00  0.00     0.111 A 
ATOM     27  C   UNL     1     112.278 109.853  73.583  1.00  0.00     0.004 A 
ATOM     28  C   UNL     1     113.321 110.147  74.455  1.00  0.00     0.020 A 
ENDBRANCH   9  23
ENDBRANCH   3   9
BRANCH   8  29
ATOM     29  C   UNL     1     112.170 114.474  80.276  1.00  0.00     0.135 C 
BRANCH  29  30
ATOM     30  C   UNL     1     113.541 114.046  79.853  1.00  0.00    -0.039 A 
ATOM     31  C   UNL     1     114.666 114.649  80.417  1.00  0.00     0.004 A 
ATOM     32  C   UNL     1     113.694 113.043  78.895  1.00  0.00     0.004 A 
ATOM     33  C   UNL     1     115.943 114.249  80.023  1.00  0.00     0.000 A 
ATOM     34  C   UNL     1     114.971 112.644  78.501  1.00  0.00     0.000 A 
ATOM     35  C   UNL     1     116.095 113.247  79.065  1.00  0.00     0.000 A 
ENDBRANCH  29  30
ENDBRANCH   8  29
TORSDOF 6
ENDMDL
