MODEL 1
REMARK VINA RESULT:      -7.8      0.000      0.000
REMARK SMILES Cc1ccc2oc(=O)c3ccc(cc3)c(=O)oc2c1C
REMARK SMILES IDX 17 1 6 2 16 3 8 4 19 5 18 6 2 7 5 8 3 9 4 10 20 11 1 12
REMARK SMILES IDX 12 13 9 14 15 15 11 16 13 17 7 18 10 19 14 20
REMARK H PARENT
ROOT
ATOM      1  O   UNL     1     106.102  95.396 115.167  1.00  0.00    -0.419 OA
ATOM      2  O   UNL     1     106.636  96.202 112.400  1.00  0.00    -0.419 OA
ATOM      3  O   UNL     1     105.388  93.691 116.607  1.00  0.00    -0.246 OA
ATOM      4  O   UNL     1     106.634  95.575 110.142  1.00  0.00    -0.246 OA
ATOM      5  C   UNL     1     103.901  96.341 114.950  1.00  0.00    -0.001 A 
ATOM      6  C   UNL     1     105.137  96.049 114.365  1.00  0.00     0.177 A 
ATOM      7  C   UNL     1     102.923  97.004 114.209  1.00  0.00    -0.044 A 
ATOM      8  C   UNL     1     105.394  96.436 113.034  1.00  0.00     0.174 A 
ATOM      9  C   UNL     1     103.177  97.387 112.891  1.00  0.00     0.008 A 
ATOM     10  C   UNL     1     104.412  97.112 112.303  1.00  0.00     0.051 A 
ATOM     11  C   UNL     1     103.615  96.011 116.381  1.00  0.00     0.049 C 
ATOM     12  C   UNL     1     101.591  97.331 114.805  1.00  0.00     0.045 C 
ATOM     13  C   UNL     1     106.168  93.193 114.396  1.00  0.00     0.060 A 
ATOM     14  C   UNL     1     106.654  93.926 111.882  1.00  0.00     0.060 A 
ATOM     15  C   UNL     1     105.797  94.071 115.527  1.00  0.00     0.343 A 
ATOM     16  C   UNL     1     105.141  93.004 113.466  1.00  0.00     0.016 A 
ATOM     17  C   UNL     1     107.508  93.313 114.011  1.00  0.00     0.016 A 
ATOM     18  C   UNL     1     106.608  95.295 111.326  1.00  0.00     0.343 A 
ATOM     19  C   UNL     1     105.393  93.385 112.158  1.00  0.00     0.016 A 
ATOM     20  C   UNL     1     107.760  93.692 112.706  1.00  0.00     0.016 A 
ENDROOT
TORSDOF 0
ENDMDL
MODEL 2
REMARK VINA RESULT:      -6.8      1.579      5.047
REMARK SMILES Cc1ccc2oc(=O)c3ccc(cc3)c(=O)oc2c1C
REMARK SMILES IDX 17 1 6 2 16 3 8 4 19 5 18 6 2 7 5 8 3 9 4 10 20 11 1 12
REMARK SMILES IDX 12 13 9 14 15 15 11 16 13 17 7 18 10 19 14 20
REMARK H PARENT
ROOT
ATOM      1  O   UNL     1     105.341  96.843 114.040  1.00  0.00    -0.419 OA
ATOM      2  O   UNL     1     106.088  94.940 116.141  1.00  0.00    -0.419 OA
ATOM      3  O   UNL     1     103.683  97.562 112.549  1.00  0.00    -0.246 OA
ATOM      4  O   UNL     1     105.430  93.114 117.455  1.00  0.00    -0.246 OA
ATOM      5  C   UNL     1     106.360  95.372 112.434  1.00  0.00    -0.001 A 
ATOM      6  C   UNL     1     106.016  95.631 113.764  1.00  0.00     0.177 A 
ATOM      7  C   UNL     1     107.047  94.201 112.111  1.00  0.00    -0.044 A 
ATOM      8  C   UNL     1     106.375  94.716 114.774  1.00  0.00     0.174 A 
ATOM      9  C   UNL     1     107.402  93.295 113.112  1.00  0.00     0.008 A 
ATOM     10  C   UNL     1     107.076  93.551 114.443  1.00  0.00     0.051 A 
ATOM     11  C   UNL     1     106.060  96.351 111.343  1.00  0.00     0.049 C 
ATOM     12  C   UNL     1     107.429  93.895 110.699  1.00  0.00     0.045 C 
ATOM     13  C   UNL     1     103.126  96.240 114.470  1.00  0.00     0.060 A 
ATOM     14  C   UNL     1     103.806  94.511 116.379  1.00  0.00     0.060 A 
ATOM     15  C   UNL     1     104.033  96.939 113.533  1.00  0.00     0.343 A 
ATOM     16  C   UNL     1     102.960  94.880 114.188  1.00  0.00     0.016 A 
ATOM     17  C   UNL     1     103.193  96.726 115.780  1.00  0.00     0.016 A 
ATOM     18  C   UNL     1     105.168  94.049 116.722  1.00  0.00     0.343 A 
ATOM     19  C   UNL     1     103.314  93.980 115.181  1.00  0.00     0.016 A 
ATOM     20  C   UNL     1     103.545  95.828 116.770  1.00  0.00     0.016 A 
ENDROOT
TORSDOF 0
ENDMDL
MODEL 3
REMARK VINA RESULT:      -6.8      2.347      4.039
REMARK SMILES Cc1ccc2oc(=O)c3ccc(cc3)c(=O)oc2c1C
REMARK SMILES IDX 17 1 6 2 16 3 8 4 19 5 18 6 2 7 5 8 3 9 4 10 20 11 1 12
REMARK SMILES IDX 12 13 9 14 15 15 11 16 13 17 7 18 10 19 14 20
REMARK H PARENT
ROOT
ATOM      1  O   UNL     1     103.110  95.611 111.963  1.00  0.00    -0.419 OA
ATOM      2  O   UNL     1     105.550  94.034 111.571  1.00  0.00    -0.419 OA
ATOM      3  O   UNL     1     102.064  97.337 113.153  1.00  0.00    -0.246 OA
ATOM      4  O   UNL     1     107.763  93.650 112.241  1.00  0.00    -0.246 OA
ATOM      5  C   UNL     1     102.319  93.898 113.453  1.00  0.00    -0.001 A 
ATOM      6  C   UNL     1     103.333  94.378 112.619  1.00  0.00     0.177 A 
ATOM      7  C   UNL     1     102.480  92.676 114.107  1.00  0.00    -0.044 A 
ATOM      8  C   UNL     1     104.506  93.620 112.431  1.00  0.00     0.174 A 
ATOM      9  C   UNL     1     103.642  91.925 113.921  1.00  0.00     0.008 A 
ATOM     10  C   UNL     1     104.653  92.389 113.079  1.00  0.00     0.051 A 
ATOM     11  C   UNL     1     101.030  94.638 113.623  1.00  0.00     0.049 C 
ATOM     12  C   UNL     1     101.414  92.135 115.006  1.00  0.00     0.045 C 
ATOM     13  C   UNL     1     104.454  97.163 113.077  1.00  0.00     0.060 A 
ATOM     14  C   UNL     1     106.671  95.729 112.721  1.00  0.00     0.060 A 
ATOM     15  C   UNL     1     103.064  96.743 112.796  1.00  0.00     0.343 A 
ATOM     16  C   UNL     1     105.011  96.556 114.207  1.00  0.00     0.016 A 
ATOM     17  C   UNL     1     105.205  97.419 111.924  1.00  0.00     0.016 A 
ATOM     18  C   UNL     1     106.767  94.348 112.202  1.00  0.00     0.343 A 
ATOM     19  C   UNL     1     106.164  95.810 114.023  1.00  0.00     0.016 A 
ATOM     20  C   UNL     1     106.355  96.676 111.740  1.00  0.00     0.016 A 
ENDROOT
TORSDOF 0
ENDMDL
MODEL 4
REMARK VINA RESULT:      -6.8      1.314      2.093
REMARK SMILES Cc1ccc2oc(=O)c3ccc(cc3)c(=O)oc2c1C
REMARK SMILES IDX 17 1 6 2 16 3 8 4 19 5 18 6 2 7 5 8 3 9 4 10 20 11 1 12
REMARK SMILES IDX 12 13 9 14 15 15 11 16 13 17 7 18 10 19 14 20
REMARK H PARENT
ROOT
ATOM      1  O   UNL     1     106.569  94.252 115.006  1.00  0.00    -0.419 OA
ATOM      2  O   UNL     1     106.094  96.690 113.449  1.00  0.00    -0.419 OA
ATOM      3  O   UNL     1     106.323  91.925 115.124  1.00  0.00    -0.246 OA
ATOM      4  O   UNL     1     105.210  97.621 111.488  1.00  0.00    -0.246 OA
ATOM      5  C   UNL     1     104.517  94.681 116.183  1.00  0.00    -0.001 A 
ATOM      6  C   UNL     1     105.423  95.062 115.189  1.00  0.00     0.177 A 
ATOM      7  C   UNL     1     103.381  95.457 116.420  1.00  0.00    -0.044 A 
ATOM      8  C   UNL     1     105.195  96.234 114.441  1.00  0.00     0.174 A 
ATOM      9  C   UNL     1     103.155  96.618 115.678  1.00  0.00     0.008 A 
ATOM     10  C   UNL     1     104.062  97.013 114.694  1.00  0.00     0.051 A 
ATOM     11  C   UNL     1     104.759  93.484 117.047  1.00  0.00     0.049 C 
ATOM     12  C   UNL     1     102.393  95.077 117.475  1.00  0.00     0.045 C 
ATOM     13  C   UNL     1     106.191  93.075 113.025  1.00  0.00     0.060 A 
ATOM     14  C   UNL     1     105.759  95.291 111.610  1.00  0.00     0.060 A 
ATOM     15  C   UNL     1     106.327  92.965 114.493  1.00  0.00     0.343 A 
ATOM     16  C   UNL     1     104.881  93.314 112.595  1.00  0.00     0.016 A 
ATOM     17  C   UNL     1     107.297  93.664 112.402  1.00  0.00     0.016 A 
ATOM     18  C   UNL     1     105.606  96.667 112.131  1.00  0.00     0.343 A 
ATOM     19  C   UNL     1     104.656  94.467 111.859  1.00  0.00     0.016 A 
ATOM     20  C   UNL     1     107.073  94.813 111.668  1.00  0.00     0.016 A 
ENDROOT
TORSDOF 0
ENDMDL
MODEL 5
REMARK VINA RESULT:      -6.7      2.549      4.203
REMARK SMILES Cc1ccc2oc(=O)c3ccc(cc3)c(=O)oc2c1C
REMARK SMILES IDX 17 1 6 2 16 3 8 4 19 5 18 6 2 7 5 8 3 9 4 10 20 11 1 12
REMARK SMILES IDX 12 13 9 14 15 15 11 16 13 17 7 18 10 19 14 20
REMARK H PARENT
ROOT
ATOM      1  O   UNL     1     103.818  93.155 112.547  1.00  0.00    -0.419 OA
ATOM      2  O   UNL     1     106.589  92.471 113.219  1.00  0.00    -0.419 OA
ATOM      3  O   UNL     1     102.232  94.858 112.276  1.00  0.00    -0.246 OA
ATOM      4  O   UNL     1     108.703  93.261 113.849  1.00  0.00    -0.246 OA
ATOM      5  C   UNL     1     103.232  92.768 114.847  1.00  0.00    -0.001 A 
ATOM      6  C   UNL     1     104.221  92.811 113.859  1.00  0.00     0.177 A 
ATOM      7  C   UNL     1     103.572  92.412 116.152  1.00  0.00    -0.044 A 
ATOM      8  C   UNL     1     105.552  92.482 114.182  1.00  0.00     0.174 A 
ATOM      9  C   UNL     1     104.892  92.087 116.473  1.00  0.00     0.008 A 
ATOM     10  C   UNL     1     105.882  92.114 115.490  1.00  0.00     0.051 A 
ATOM     11  C   UNL     1     101.796  93.040 114.529  1.00  0.00     0.049 C 
ATOM     12  C   UNL     1     102.539  92.357 117.231  1.00  0.00     0.045 C 
ATOM     13  C   UNL     1     104.580  95.337 112.213  1.00  0.00     0.060 A 
ATOM     14  C   UNL     1     107.098  94.715 112.824  1.00  0.00     0.060 A 
ATOM     15  C   UNL     1     103.385  94.481 112.373  1.00  0.00     0.343 A 
ATOM     16  C   UNL     1     105.086  95.834 113.418  1.00  0.00     0.016 A 
ATOM     17  C   UNL     1     105.416  94.940 111.162  1.00  0.00     0.016 A 
ATOM     18  C   UNL     1     107.590  93.443 113.394  1.00  0.00     0.343 A 
ATOM     19  C   UNL     1     106.396  95.510 113.737  1.00  0.00     0.016 A 
ATOM     20  C   UNL     1     106.721  94.618 111.479  1.00  0.00     0.016 A 
ENDROOT
TORSDOF 0
ENDMDL
MODEL 6
REMARK VINA RESULT:      -6.5      1.833      4.030
REMARK SMILES Cc1ccc2oc(=O)c3ccc(cc3)c(=O)oc2c1C
REMARK SMILES IDX 17 1 6 2 16 3 8 4 19 5 18 6 2 7 5 8 3 9 4 10 20 11 1 12
REMARK SMILES IDX 12 13 9 14 15 15 11 16 13 17 7 18 10 19 14 20
REMARK H PARENT
ROOT
ATOM      1  O   UNL     1     105.440  93.496 112.830  1.00  0.00    -0.419 OA
ATOM      2  O   UNL     1     103.163  93.707 114.664  1.00  0.00    -0.419 OA
ATOM      3  O   UNL     1     107.770  93.522 112.590  1.00  0.00    -0.246 OA
ATOM      4  O   UNL     1     102.451  94.017 116.875  1.00  0.00    -0.246 OA
ATOM      5  C   UNL     1     105.216  95.849 112.384  1.00  0.00    -0.001 A 
ATOM      6  C   UNL     1     104.774  94.719 113.079  1.00  0.00     0.177 A 
ATOM      7  C   UNL     1     104.579  97.075 112.577  1.00  0.00    -0.044 A 
ATOM      8  C   UNL     1     103.679  94.821 113.961  1.00  0.00     0.174 A 
ATOM      9  C   UNL     1     103.495  97.175 113.451  1.00  0.00     0.008 A 
ATOM     10  C   UNL     1     103.038  96.051 114.139  1.00  0.00     0.051 A 
ATOM     11  C   UNL     1     106.328  95.768 111.386  1.00  0.00     0.049 C 
ATOM     12  C   UNL     1     105.028  98.301 111.849  1.00  0.00     0.045 C 
ATOM     13  C   UNL     1     106.754  93.103 114.720  1.00  0.00     0.060 A 
ATOM     14  C   UNL     1     104.684  93.295 116.387  1.00  0.00     0.060 A 
ATOM     15  C   UNL     1     106.771  93.427 113.277  1.00  0.00     0.343 A 
ATOM     16  C   UNL     1     106.705  94.227 115.552  1.00  0.00     0.016 A 
ATOM     17  C   UNL     1     106.061  91.925 115.021  1.00  0.00     0.016 A 
ATOM     18  C   UNL     1     103.315  93.748 116.062  1.00  0.00     0.343 A 
ATOM     19  C   UNL     1     105.628  94.328 116.419  1.00  0.00     0.016 A 
ATOM     20  C   UNL     1     104.988  92.025 115.886  1.00  0.00     0.016 A 
ENDROOT
TORSDOF 0
ENDMDL
MODEL 7
REMARK VINA RESULT:      -6.3      1.785      2.725
REMARK SMILES Cc1ccc2oc(=O)c3ccc(cc3)c(=O)oc2c1C
REMARK SMILES IDX 17 1 6 2 16 3 8 4 19 5 18 6 2 7 5 8 3 9 4 10 20 11 1 12
REMARK SMILES IDX 12 13 9 14 15 15 11 16 13 17 7 18 10 19 14 20
REMARK H PARENT
ROOT
ATOM      1  O   UNL     1     103.873  94.673 115.330  1.00  0.00    -0.419 OA
ATOM      2  O   UNL     1     106.716  94.566 114.627  1.00  0.00    -0.419 OA
ATOM      3  O   UNL     1     101.754  93.706 115.072  1.00  0.00    -0.246 OA
ATOM      4  O   UNL     1     108.397  93.458 113.427  1.00  0.00    -0.246 OA
ATOM      5  C   UNL     1     103.550  96.227 113.523  1.00  0.00    -0.001 A 
ATOM      6  C   UNL     1     104.417  95.403 114.247  1.00  0.00     0.177 A 
ATOM      7  C   UNL     1     104.042  96.985 112.460  1.00  0.00    -0.044 A 
ATOM      8  C   UNL     1     105.784  95.351 113.909  1.00  0.00     0.174 A 
ATOM      9  C   UNL     1     105.396  96.934 112.125  1.00  0.00     0.008 A 
ATOM     10  C   UNL     1     106.271  96.125 112.850  1.00  0.00     0.051 A 
ATOM     11  C   UNL     1     102.108  96.364 113.895  1.00  0.00     0.049 C 
ATOM     12  C   UNL     1     103.141  97.876 111.666  1.00  0.00     0.045 C 
ATOM     13  C   UNL     1     103.745  92.461 114.591  1.00  0.00     0.060 A 
ATOM     14  C   UNL     1     106.329  92.365 113.952  1.00  0.00     0.060 A 
ATOM     15  C   UNL     1     102.966  93.656 114.982  1.00  0.00     0.343 A 
ATOM     16  C   UNL     1     104.065  92.416 113.230  1.00  0.00     0.016 A 
ATOM     17  C   UNL     1     104.634  92.025 115.579  1.00  0.00     0.016 A 
ATOM     18  C   UNL     1     107.283  93.494 113.914  1.00  0.00     0.343 A 
ATOM     19  C   UNL     1     105.410  92.365 112.897  1.00  0.00     0.016 A 
ATOM     20  C   UNL     1     105.974  91.974 115.248  1.00  0.00     0.016 A 
ENDROOT
TORSDOF 0
ENDMDL
MODEL 8
REMARK VINA RESULT:      -6.3      1.862      3.778
REMARK SMILES Cc1ccc2oc(=O)c3ccc(cc3)c(=O)oc2c1C
REMARK SMILES IDX 17 1 6 2 16 3 8 4 19 5 18 6 2 7 5 8 3 9 4 10 20 11 1 12
REMARK SMILES IDX 12 13 9 14 15 15 11 16 13 17 7 18 10 19 14 20
REMARK H PARENT
ROOT
ATOM      1  O   UNL     1     104.438  95.312 111.850  1.00  0.00    -0.419 OA
ATOM      2  O   UNL     1     104.459  92.919 113.542  1.00  0.00    -0.419 OA
ATOM      3  O   UNL     1     105.180  97.517 111.567  1.00  0.00    -0.246 OA
ATOM      4  O   UNL     1     105.227  91.926 115.521  1.00  0.00    -0.246 OA
ATOM      5  C   UNL     1     102.394  95.979 112.928  1.00  0.00    -0.001 A 
ATOM      6  C   UNL     1     103.439  95.056 112.819  1.00  0.00     0.177 A 
ATOM      7  C   UNL     1     101.372  95.761 113.853  1.00  0.00    -0.044 A 
ATOM      8  C   UNL     1     103.450  93.906 113.632  1.00  0.00     0.174 A 
ATOM      9  C   UNL     1     101.383  94.621 114.659  1.00  0.00     0.008 A 
ATOM     10  C   UNL     1     102.414  93.689 114.547  1.00  0.00     0.051 A 
ATOM     11  C   UNL     1     102.309  97.175 112.034  1.00  0.00     0.049 C 
ATOM     12  C   UNL     1     100.241  96.728 113.994  1.00  0.00     0.045 C 
ATOM     13  C   UNL     1     106.311  96.016 113.054  1.00  0.00     0.060 A 
ATOM     14  C   UNL     1     106.330  93.841 114.592  1.00  0.00     0.060 A 
ATOM     15  C   UNL     1     105.257  96.427 112.102  1.00  0.00     0.343 A 
ATOM     16  C   UNL     1     105.955  96.180 114.397  1.00  0.00     0.016 A 
ATOM     17  C   UNL     1     107.069  94.926 112.613  1.00  0.00     0.016 A 
ATOM     18  C   UNL     1     105.288  92.794 114.671  1.00  0.00     0.343 A 
ATOM     19  C   UNL     1     105.965  95.048 115.198  1.00  0.00     0.016 A 
ATOM     20  C   UNL     1     107.079  93.798 113.411  1.00  0.00     0.016 A 
ENDROOT
TORSDOF 0
ENDMDL
MODEL 9
REMARK VINA RESULT:      -6.3      1.662      4.029
REMARK SMILES Cc1ccc2oc(=O)c3ccc(cc3)c(=O)oc2c1C
REMARK SMILES IDX 17 1 6 2 16 3 8 4 19 5 18 6 2 7 5 8 3 9 4 10 20 11 1 12
REMARK SMILES IDX 12 13 9 14 15 15 11 16 13 17 7 18 10 19 14 20
REMARK H PARENT
ROOT
ATOM      1  O   UNL     1     103.216  95.167 113.917  1.00  0.00    -0.419 OA
ATOM      2  O   UNL     1     104.898  94.661 111.570  1.00  0.00    -0.419 OA
ATOM      3  O   UNL     1     102.829  96.513 115.795  1.00  0.00    -0.246 OA
ATOM      4  O   UNL     1     106.760  95.329 110.314  1.00  0.00    -0.246 OA
ATOM      5  C   UNL     1     104.554  93.585 115.137  1.00  0.00    -0.001 A 
ATOM      6  C   UNL     1     104.310  94.270 113.943  1.00  0.00     0.177 A 
ATOM      7  C   UNL     1     105.608  92.673 115.210  1.00  0.00    -0.044 A 
ATOM      8  C   UNL     1     105.118  94.027 112.815  1.00  0.00     0.174 A 
ATOM      9  C   UNL     1     106.409  92.433 114.092  1.00  0.00     0.008 A 
ATOM     10  C   UNL     1     106.164  93.101 112.892  1.00  0.00     0.051 A 
ATOM     11  C   UNL     1     103.675  93.762 116.335  1.00  0.00     0.049 C 
ATOM     12  C   UNL     1     105.895  91.925 116.471  1.00  0.00     0.045 C 
ATOM     13  C   UNL     1     104.157  97.303 113.964  1.00  0.00     0.060 A 
ATOM     14  C   UNL     1     105.686  96.843 111.831  1.00  0.00     0.060 A 
ATOM     15  C   UNL     1     103.352  96.316 114.715  1.00  0.00     0.343 A 
ATOM     16  C   UNL     1     105.535  97.190 114.177  1.00  0.00     0.016 A 
ATOM     17  C   UNL     1     103.623  97.623 112.711  1.00  0.00     0.016 A 
ATOM     18  C   UNL     1     105.906  95.548 111.153  1.00  0.00     0.343 A 
ATOM     19  C   UNL     1     106.331  96.951 113.068  1.00  0.00     0.016 A 
ATOM     20  C   UNL     1     104.416  97.385 111.605  1.00  0.00     0.016 A 
ENDROOT
TORSDOF 0
ENDMDL
MODEL 10
REMARK VINA RESULT:      -6.2      1.715      1.724
REMARK SMILES Cc1ccc2oc(=O)c3ccc(cc3)c(=O)oc2c1C
REMARK SMILES IDX 17 1 6 2 16 3 8 4 19 5 18 6 2 7 5 8 3 9 4 10 20 11 1 12
REMARK SMILES IDX 12 13 9 14 15 15 11 16 13 17 7 18 10 19 14 20
REMARK H PARENT
ROOT
ATOM      1  O   UNL     1     104.863  94.592 115.468  1.00  0.00    -0.419 OA
ATOM      2  O   UNL     1     105.511  95.655 112.814  1.00  0.00    -0.419 OA
ATOM      3  O   UNL     1     104.713  92.694 116.835  1.00  0.00    -0.246 OA
ATOM      4  O   UNL     1     106.226  95.177 110.634  1.00  0.00    -0.246 OA
ATOM      5  C   UNL     1     102.560  94.467 114.785  1.00  0.00    -0.001 A 
ATOM      6  C   UNL     1     103.885  94.777 114.462  1.00  0.00     0.177 A 
ATOM      7  C   UNL     1     101.554  94.653 113.836  1.00  0.00    -0.044 A 
ATOM      8  C   UNL     1     104.197  95.288 113.187  1.00  0.00     0.174 A 
ATOM      9  C   UNL     1     101.864  95.159 112.572  1.00  0.00     0.008 A 
ATOM     10  C   UNL     1     103.180  95.484 112.246  1.00  0.00     0.051 A 
ATOM     11  C   UNL     1     102.178  93.991 116.151  1.00  0.00     0.049 C 
ATOM     12  C   UNL     1     100.129  94.331 114.149  1.00  0.00     0.045 C 
ATOM     13  C   UNL     1     106.047  92.679 114.843  1.00  0.00     0.060 A 
ATOM     14  C   UNL     1     106.636  93.645 112.431  1.00  0.00     0.060 A 
ATOM     15  C   UNL     1     105.113  93.257 115.833  1.00  0.00     0.343 A 
ATOM     16  C   UNL     1     105.412  92.088 113.745  1.00  0.00     0.016 A 
ATOM     17  C   UNL     1     107.241  93.396 114.714  1.00  0.00     0.016 A 
ATOM     18  C   UNL     1     106.097  94.871 111.804  1.00  0.00     0.343 A 
ATOM     19  C   UNL     1     105.718  92.590 112.490  1.00  0.00     0.016 A 
ATOM     20  C   UNL     1     107.547  93.897 113.463  1.00  0.00     0.016 A 
ENDROOT
TORSDOF 0
ENDMDL
MODEL 11
REMARK VINA RESULT:      -6.2      1.792      4.446
REMARK SMILES Cc1ccc2oc(=O)c3ccc(cc3)c(=O)oc2c1C
REMARK SMILES IDX 17 1 6 2 16 3 8 4 19 5 18 6 2 7 5 8 3 9 4 10 20 11 1 12
REMARK SMILES IDX 12 13 9 14 15 15 11 16 13 17 7 18 10 19 14 20
REMARK H PARENT
ROOT
ATOM      1  O   UNL     1     106.434  95.876 113.782  1.00  0.00    -0.419 OA
ATOM      2  O   UNL     1     104.006  97.104 114.871  1.00  0.00    -0.419 OA
ATOM      3  O   UNL     1     107.381  94.604 112.056  1.00  0.00    -0.246 OA
ATOM      4  O   UNL     1     101.707  97.471 114.603  1.00  0.00    -0.246 OA
ATOM      5  C   UNL     1     106.009  93.957 115.167  1.00  0.00    -0.001 A 
ATOM      6  C   UNL     1     105.608  95.222 114.726  1.00  0.00     0.177 A 
ATOM      7  C   UNL     1     105.241  93.279 116.115  1.00  0.00    -0.044 A 
ATOM      8  C   UNL     1     104.441  95.813 115.250  1.00  0.00     0.174 A 
ATOM      9  C   UNL     1     104.084  93.864 116.633  1.00  0.00     0.008 A 
ATOM     10  C   UNL     1     103.685  95.132 116.210  1.00  0.00     0.051 A 
ATOM     11  C   UNL     1     107.279  93.327 114.689  1.00  0.00     0.049 C 
ATOM     12  C   UNL     1     105.641  91.925 116.606  1.00  0.00     0.045 C 
ATOM     13  C   UNL     1     105.290  95.737 111.750  1.00  0.00     0.060 A 
ATOM     14  C   UNL     1     103.084  96.853 112.741  1.00  0.00     0.060 A 
ATOM     15  C   UNL     1     106.480  95.288 112.505  1.00  0.00     0.343 A 
ATOM     16  C   UNL     1     104.173  94.911 111.911  1.00  0.00     0.016 A 
ATOM     17  C   UNL     1     105.179  97.129 111.658  1.00  0.00     0.016 A 
ATOM     18  C   UNL     1     102.794  97.152 114.160  1.00  0.00     0.343 A 
ATOM     19  C   UNL     1     103.025  95.491 112.427  1.00  0.00     0.016 A 
ATOM     20  C   UNL     1     104.034  97.708 112.172  1.00  0.00     0.016 A 
ENDROOT
TORSDOF 0
ENDMDL
MODEL 12
REMARK VINA RESULT:      -6.2      2.578      3.358
REMARK SMILES Cc1ccc2oc(=O)c3ccc(cc3)c(=O)oc2c1C
REMARK SMILES IDX 17 1 6 2 16 3 8 4 19 5 18 6 2 7 5 8 3 9 4 10 20 11 1 12
REMARK SMILES IDX 12 13 9 14 15 15 11 16 13 17 7 18 10 19 14 20
REMARK H PARENT
ROOT
ATOM      1  O   UNL     1     104.130  93.959 114.106  1.00  0.00    -0.419 OA
ATOM      2  O   UNL     1     103.792  96.729 113.208  1.00  0.00    -0.419 OA
ATOM      3  O   UNL     1     105.254  91.925 113.803  1.00  0.00    -0.246 OA
ATOM      4  O   UNL     1     104.462  98.395 111.702  1.00  0.00    -0.246 OA
ATOM      5  C   UNL     1     102.304  93.337 112.671  1.00  0.00    -0.001 A 
ATOM      6  C   UNL     1     103.152  94.337 113.156  1.00  0.00     0.177 A 
ATOM      7  C   UNL     1     101.308  93.662 111.749  1.00  0.00    -0.044 A 
ATOM      8  C   UNL     1     102.990  95.669 112.724  1.00  0.00     0.174 A 
ATOM      9  C   UNL     1     101.147  94.981 111.321  1.00  0.00     0.008 A 
ATOM     10  C   UNL     1     101.980  95.987 111.811  1.00  0.00     0.051 A 
ATOM     11  C   UNL     1     102.397  91.926 113.158  1.00  0.00     0.049 C 
ATOM     12  C   UNL     1     100.385  92.617 111.210  1.00  0.00     0.045 C 
ATOM     13  C   UNL     1     106.160  93.974 112.952  1.00  0.00     0.060 A 
ATOM     14  C   UNL     1     105.853  96.492 112.136  1.00  0.00     0.060 A 
ATOM     15  C   UNL     1     105.154  93.124 113.624  1.00  0.00     0.343 A 
ATOM     16  C   UNL     1     105.910  94.179 111.591  1.00  0.00     0.016 A 
ATOM     17  C   UNL     1     106.679  94.983 113.773  1.00  0.00     0.016 A 
ATOM     18  C   UNL     1     104.640  97.329 112.260  1.00  0.00     0.343 A 
ATOM     19  C   UNL     1     105.750  95.488 111.166  1.00  0.00     0.016 A 
ATOM     20  C   UNL     1     106.520  96.288 113.349  1.00  0.00     0.016 A 
ENDROOT
TORSDOF 0
ENDMDL
MODEL 13
REMARK VINA RESULT:      -6.1      1.997      3.388
REMARK SMILES Cc1ccc2oc(=O)c3ccc(cc3)c(=O)oc2c1C
REMARK SMILES IDX 17 1 6 2 16 3 8 4 19 5 18 6 2 7 5 8 3 9 4 10 20 11 1 12
REMARK SMILES IDX 12 13 9 14 15 15 11 16 13 17 7 18 10 19 14 20
REMARK H PARENT
ROOT
ATOM      1  O   UNL     1     106.170  95.192 114.964  1.00  0.00    -0.419 OA
ATOM      2  O   UNL     1     103.941  96.906 114.134  1.00  0.00    -0.419 OA
ATOM      3  O   UNL     1     107.549  93.375 114.427  1.00  0.00    -0.246 OA
ATOM      4  O   UNL     1     102.339  97.377 112.490  1.00  0.00    -0.246 OA
ATOM      5  C   UNL     1     104.594  93.835 116.170  1.00  0.00    -0.001 A 
ATOM      6  C   UNL     1     104.831  94.935 115.340  1.00  0.00     0.177 A 
ATOM      7  C   UNL     1     103.293  93.550 116.588  1.00  0.00    -0.044 A 
ATOM      8  C   UNL     1     103.759  95.759 114.941  1.00  0.00     0.174 A 
ATOM      9  C   UNL     1     102.232  94.366 116.192  1.00  0.00     0.008 A 
ATOM     10  C   UNL     1     102.461  95.474 115.376  1.00  0.00     0.051 A 
ATOM     11  C   UNL     1     105.713  92.978 116.673  1.00  0.00     0.049 C 
ATOM     12  C   UNL     1     103.006  92.381 117.474  1.00  0.00     0.045 C 
ATOM     13  C   UNL     1     106.326  94.542 112.726  1.00  0.00     0.060 A 
ATOM     14  C   UNL     1     104.301  96.099 111.973  1.00  0.00     0.060 A 
ATOM     15  C   UNL     1     106.755  94.241 114.110  1.00  0.00     0.343 A 
ATOM     16  C   UNL     1     105.138  93.907 112.352  1.00  0.00     0.016 A 
ATOM     17  C   UNL     1     106.637  95.843 112.315  1.00  0.00     0.016 A 
ATOM     18  C   UNL     1     103.371  96.842 112.851  1.00  0.00     0.343 A 
ATOM     19  C   UNL     1     104.083  94.717 111.960  1.00  0.00     0.016 A 
ATOM     20  C   UNL     1     105.586  96.650 111.924  1.00  0.00     0.016 A 
ENDROOT
TORSDOF 0
ENDMDL
MODEL 14
REMARK VINA RESULT:      -6.1      2.124      5.356
REMARK SMILES Cc1ccc2oc(=O)c3ccc(cc3)c(=O)oc2c1C
REMARK SMILES IDX 17 1 6 2 16 3 8 4 19 5 18 6 2 7 5 8 3 9 4 10 20 11 1 12
REMARK SMILES IDX 12 13 9 14 15 15 11 16 13 17 7 18 10 19 14 20
REMARK H PARENT
ROOT
ATOM      1  O   UNL     1     104.387  96.586 113.604  1.00  0.00    -0.419 OA
ATOM      2  O   UNL     1     103.374  94.218 115.004  1.00  0.00    -0.419 OA
ATOM      3  O   UNL     1     104.078  98.102 111.845  1.00  0.00    -0.246 OA
ATOM      4  O   UNL     1     101.713  92.568 115.114  1.00  0.00    -0.246 OA
ATOM      5  C   UNL     1     105.800  95.136 112.307  1.00  0.00    -0.001 A 
ATOM      6  C   UNL     1     104.822  95.275 113.297  1.00  0.00     0.177 A 
ATOM      7  C   UNL     1     106.280  93.867 111.981  1.00  0.00    -0.044 A 
ATOM      8  C   UNL     1     104.335  94.137 113.969  1.00  0.00     0.174 A 
ATOM      9  C   UNL     1     105.797  92.739 112.648  1.00  0.00     0.008 A 
ATOM     10  C   UNL     1     104.831  92.870 113.646  1.00  0.00     0.051 A 
ATOM     11  C   UNL     1     106.394  96.325 111.620  1.00  0.00     0.049 C 
ATOM     12  C   UNL     1     107.325  93.684 110.928  1.00  0.00     0.045 C 
ATOM     13  C   UNL     1     102.258  96.774 112.663  1.00  0.00     0.060 A 
ATOM     14  C   UNL     1     101.338  94.622 113.936  1.00  0.00     0.060 A 
ATOM     15  C   UNL     1     103.660  97.238 112.592  1.00  0.00     0.343 A 
ATOM     16  C   UNL     1     101.998  95.637 111.891  1.00  0.00     0.016 A 
ATOM     17  C   UNL     1     101.665  96.974 113.915  1.00  0.00     0.016 A 
ATOM     18  C   UNL     1     102.123  93.643 114.717  1.00  0.00     0.343 A 
ATOM     19  C   UNL     1     101.520  94.517 112.552  1.00  0.00     0.016 A 
ATOM     20  C   UNL     1     101.187  95.857 114.575  1.00  0.00     0.016 A 
ENDROOT
TORSDOF 0
ENDMDL
MODEL 15
REMARK VINA RESULT:      -6.1      1.880      4.511
REMARK SMILES Cc1ccc2oc(=O)c3ccc(cc3)c(=O)oc2c1C
REMARK SMILES IDX 17 1 6 2 16 3 8 4 19 5 18 6 2 7 5 8 3 9 4 10 20 11 1 12
REMARK SMILES IDX 12 13 9 14 15 15 11 16 13 17 7 18 10 19 14 20
REMARK H PARENT
ROOT
ATOM      1  O   UNL     1     103.460  93.250 114.152  1.00  0.00    -0.419 OA
ATOM      2  O   UNL     1     103.122  95.389 112.177  1.00  0.00    -0.419 OA
ATOM      3  O   UNL     1     103.739  92.698 116.412  1.00  0.00    -0.246 OA
ATOM      4  O   UNL     1     102.953  97.696 111.796  1.00  0.00    -0.246 OA
ATOM      5  C   UNL     1     105.824  93.310 113.718  1.00  0.00    -0.001 A 
ATOM      6  C   UNL     1     104.551  93.825 113.459  1.00  0.00     0.177 A 
ATOM      7  C   UNL     1     106.931  93.827 113.044  1.00  0.00    -0.044 A 
ATOM      8  C   UNL     1     104.388  94.854 112.509  1.00  0.00     0.174 A 
ATOM      9  C   UNL     1     106.770  94.846 112.104  1.00  0.00     0.008 A 
ATOM     10  C   UNL     1     105.502  95.356 111.828  1.00  0.00     0.051 A 
ATOM     11  C   UNL     1     106.030  92.170 114.666  1.00  0.00     0.049 C 
ATOM     12  C   UNL     1     108.306  93.299 113.299  1.00  0.00     0.045 C 
ATOM     13  C   UNL     1     102.844  94.825 115.763  1.00  0.00     0.060 A 
ATOM     14  C   UNL     1     102.537  96.768 113.967  1.00  0.00     0.060 A 
ATOM     15  C   UNL     1     103.429  93.485 115.538  1.00  0.00     0.343 A 
ATOM     16  C   UNL     1     103.786  95.859 115.774  1.00  0.00     0.016 A 
ATOM     17  C   UNL     1     101.573  94.982 115.199  1.00  0.00     0.016 A 
ATOM     18  C   UNL     1     102.917  96.732 112.539  1.00  0.00     0.343 A 
ATOM     19  C   UNL     1     103.627  96.870 114.840  1.00  0.00     0.016 A 
ATOM     20  C   UNL     1     101.414  95.990 114.268  1.00  0.00     0.016 A 
ENDROOT
TORSDOF 0
ENDMDL
