MODEL 1
REMARK VINA RESULT:      -8.5      0.000      0.000
REMARK SMILES Cc1cc(C)nc(-n2nc(C(=O)N[C@@H](C)c3ccc(-c4ccccc4)cc3)cc2C)n1
REMARK SMILES IDX 12 1 13 2 11 3 10 5 9 6 28 7 8 8 29 9 30 10 7 11 31 12 6 13
REMARK SMILES IDX 2 14 4 15 3 16 1 17 5 18 14 19 15 20 16 21 17 22 27 23 18 24
REMARK SMILES IDX 26 25 19 26 20 27 21 28 25 29 22 30 24 31 23 32
REMARK H PARENT 13 4
ROOT
ATOM      1  O   UNL     1     109.380  93.929 118.461  1.00  0.00    -0.267 OA
ATOM      2  N   UNL     1     107.613  94.537 119.833  1.00  0.00    -0.344 N 
ATOM      3  C   UNL     1     108.939  94.516 119.447  1.00  0.00     0.272 C 
ATOM      4  H   UNL     1     107.351  95.008 120.694  1.00  0.00     0.164 HD
ENDROOT
BRANCH   3   5
ATOM      5  C   UNL     1     109.877  95.252 120.332  1.00  0.00     0.151 A 
ATOM      6  N   UNL     1     111.035  94.688 120.689  1.00  0.00    -0.160 NA
ATOM      7  C   UNL     1     109.707  96.538 120.880  1.00  0.00     0.059 A 
ATOM      8  N   UNL     1     111.602  95.624 121.470  1.00  0.00    -0.202 N 
ATOM      9  C   UNL     1     110.847  96.751 121.616  1.00  0.00     0.045 A 
ATOM     10  C   UNL     1     111.264  97.912 122.426  1.00  0.00     0.067 C 
BRANCH   8  11
ATOM     11  C   UNL     1     112.851  95.385 122.041  1.00  0.00     0.251 A 
ATOM     12  N   UNL     1     113.703  94.622 121.328  1.00  0.00    -0.216 NA
ATOM     13  N   UNL     1     113.077  95.939 123.247  1.00  0.00    -0.216 NA
ATOM     14  C   UNL     1     114.901  94.411 121.911  1.00  0.00     0.043 A 
ATOM     15  C   UNL     1     114.296  95.688 123.771  1.00  0.00     0.043 A 
ATOM     16  C   UNL     1     115.257  94.923 123.142  1.00  0.00     0.047 A 
ATOM     17  C   UNL     1     115.874  93.569 121.155  1.00  0.00     0.067 C 
ATOM     18  C   UNL     1     114.587  96.282 125.107  1.00  0.00     0.067 C 
ENDBRANCH   8  11
ENDBRANCH   3   5
BRANCH   2  19
ATOM     19  C   UNL     1     106.578  93.843 119.085  1.00  0.00     0.109 C 
ATOM     20  C   UNL     1     105.363  93.595 119.991  1.00  0.00     0.036 C 
BRANCH  19  21
ATOM     21  C   UNL     1     106.232  94.549 117.817  1.00  0.00    -0.026 A 
ATOM     22  C   UNL     1     106.412  93.910 116.591  1.00  0.00     0.006 A 
ATOM     23  C   UNL     1     105.728  95.849 117.859  1.00  0.00     0.006 A 
ATOM     24  C   UNL     1     106.089  94.570 115.406  1.00  0.00     0.009 A 
ATOM     25  C   UNL     1     105.405  96.510 116.673  1.00  0.00     0.009 A 
ATOM     26  C   UNL     1     105.586  95.870 115.447  1.00  0.00    -0.018 A 
BRANCH  26  27
ATOM     27  C   UNL     1     105.250  96.555 114.218  1.00  0.00    -0.018 A 
ATOM     28  C   UNL     1     103.915  96.826 113.912  1.00  0.00     0.009 A 
ATOM     29  C   UNL     1     106.259  96.945 113.338  1.00  0.00     0.009 A 
ATOM     30  C   UNL     1     103.592  97.486 112.727  1.00  0.00     0.001 A 
ATOM     31  C   UNL     1     105.936  97.606 112.153  1.00  0.00     0.001 A 
ATOM     32  C   UNL     1     104.602  97.876 111.847  1.00  0.00     0.000 A 
ENDBRANCH  26  27
ENDBRANCH  19  21
ENDBRANCH   2  19
TORSDOF 5
ENDMDL
MODEL 2
REMARK VINA RESULT:      -8.5      0.076      1.524
REMARK SMILES Cc1cc(C)nc(-n2nc(C(=O)N[C@@H](C)c3ccc(-c4ccccc4)cc3)cc2C)n1
REMARK SMILES IDX 12 1 13 2 11 3 10 5 9 6 28 7 8 8 29 9 30 10 7 11 31 12 6 13
REMARK SMILES IDX 2 14 4 15 3 16 1 17 5 18 14 19 15 20 16 21 17 22 27 23 18 24
REMARK SMILES IDX 26 25 19 26 20 27 21 28 25 29 22 30 24 31 23 32
REMARK H PARENT 13 4
ROOT
ATOM      1  O   UNL     1     109.344  93.912 118.453  1.00  0.00    -0.267 OA
ATOM      2  N   UNL     1     107.590  94.516 119.842  1.00  0.00    -0.344 N 
ATOM      3  C   UNL     1     108.912  94.498 119.443  1.00  0.00     0.272 C 
ATOM      4  H   UNL     1     107.336  94.987 120.706  1.00  0.00     0.164 HD
ENDROOT
BRANCH   3   5
ATOM      5  C   UNL     1     109.858  95.235 120.319  1.00  0.00     0.151 A 
ATOM      6  N   UNL     1     111.007  94.662 120.687  1.00  0.00    -0.160 NA
ATOM      7  C   UNL     1     109.702  96.531 120.848  1.00  0.00     0.059 A 
ATOM      8  N   UNL     1     111.584  95.602 121.455  1.00  0.00    -0.202 N 
ATOM      9  C   UNL     1     110.843  96.741 121.583  1.00  0.00     0.045 A 
ATOM     10  C   UNL     1     111.273  97.908 122.377  1.00  0.00     0.067 C 
BRANCH   8  11
ATOM     11  C   UNL     1     112.830  95.357 122.033  1.00  0.00     0.251 A 
ATOM     12  N   UNL     1     113.053  95.909 123.241  1.00  0.00    -0.216 NA
ATOM     13  N   UNL     1     113.682  94.594 121.322  1.00  0.00    -0.216 NA
ATOM     14  C   UNL     1     114.267  95.652 123.769  1.00  0.00     0.043 A 
ATOM     15  C   UNL     1     114.878  94.376 121.910  1.00  0.00     0.043 A 
ATOM     16  C   UNL     1     115.229  94.885 123.144  1.00  0.00     0.047 A 
ATOM     17  C   UNL     1     114.556  96.248 125.107  1.00  0.00     0.067 C 
ATOM     18  C   UNL     1     115.853  93.537 121.156  1.00  0.00     0.067 C 
ENDBRANCH   8  11
ENDBRANCH   3   5
BRANCH   2  19
ATOM     19  C   UNL     1     106.549  93.821 119.104  1.00  0.00     0.109 C 
ATOM     20  C   UNL     1     105.342  93.572 120.021  1.00  0.00     0.036 C 
BRANCH  19  21
ATOM     21  C   UNL     1     106.191  94.526 117.839  1.00  0.00    -0.026 A 
ATOM     22  C   UNL     1     106.314  93.869 116.615  1.00  0.00     0.006 A 
ATOM     23  C   UNL     1     105.732  95.843 117.881  1.00  0.00     0.006 A 
ATOM     24  C   UNL     1     105.980  94.527 115.433  1.00  0.00     0.009 A 
ATOM     25  C   UNL     1     105.398  96.502 116.698  1.00  0.00     0.009 A 
ATOM     26  C   UNL     1     105.522  95.844 115.474  1.00  0.00    -0.018 A 
BRANCH  26  27
ATOM     27  C   UNL     1     105.174  96.528 114.247  1.00  0.00    -0.018 A 
ATOM     28  C   UNL     1     103.834  96.690 113.894  1.00  0.00     0.009 A 
ATOM     29  C   UNL     1     106.179  97.025 113.417  1.00  0.00     0.009 A 
ATOM     30  C   UNL     1     103.499  97.349 112.712  1.00  0.00     0.001 A 
ATOM     31  C   UNL     1     105.844  97.685 112.234  1.00  0.00     0.001 A 
ATOM     32  C   UNL     1     104.505  97.846 111.881  1.00  0.00     0.000 A 
ENDBRANCH  26  27
ENDBRANCH  19  21
ENDBRANCH   2  19
TORSDOF 5
ENDMDL
MODEL 3
REMARK VINA RESULT:      -8.0      5.799     10.932
REMARK SMILES Cc1cc(C)nc(-n2nc(C(=O)N[C@@H](C)c3ccc(-c4ccccc4)cc3)cc2C)n1
REMARK SMILES IDX 12 1 13 2 11 3 10 5 9 6 28 7 8 8 29 9 30 10 7 11 31 12 6 13
REMARK SMILES IDX 2 14 4 15 3 16 1 17 5 18 14 19 15 20 16 21 17 22 27 23 18 24
REMARK SMILES IDX 26 25 19 26 20 27 21 28 25 29 22 30 24 31 23 32
REMARK H PARENT 13 4
ROOT
ATOM      1  O   UNL     1     113.363  96.895 124.489  1.00  0.00    -0.267 OA
ATOM      2  N   UNL     1     113.423  95.610 122.561  1.00  0.00    -0.344 N 
ATOM      3  C   UNL     1     112.979  96.655 123.347  1.00  0.00     0.272 C 
ATOM      4  H   UNL     1     113.008  95.462 121.646  1.00  0.00     0.164 HD
ENDROOT
BRANCH   3   5
ATOM      5  C   UNL     1     111.936  97.519 122.736  1.00  0.00     0.151 A 
ATOM      6  N   UNL     1     112.253  98.746 122.312  1.00  0.00    -0.160 NA
ATOM      7  C   UNL     1     110.578  97.208 122.531  1.00  0.00     0.059 A 
ATOM      8  N   UNL     1     111.088  99.215 121.835  1.00  0.00    -0.202 N 
ATOM      9  C   UNL     1     110.053  98.332 121.942  1.00  0.00     0.045 A 
ATOM     10  C   UNL     1     108.680  98.625 121.486  1.00  0.00     0.067 C 
BRANCH   8  11
ATOM     11  C   UNL     1     111.027 100.499 121.294  1.00  0.00     0.251 A 
ATOM     12  N   UNL     1     111.908 100.782 120.315  1.00  0.00    -0.216 NA
ATOM     13  N   UNL     1     110.095 101.324 121.808  1.00  0.00    -0.216 NA
ATOM     14  C   UNL     1     111.822 102.033 119.817  1.00  0.00     0.043 A 
ATOM     15  C   UNL     1     110.064 102.558 121.263  1.00  0.00     0.043 A 
ATOM     16  C   UNL     1     110.911 102.973 120.256  1.00  0.00     0.047 A 
ATOM     17  C   UNL     1     112.782 102.389 118.732  1.00  0.00     0.067 C 
ATOM     18  C   UNL     1     109.047 103.505 121.804  1.00  0.00     0.067 C 
ENDBRANCH   8  11
ENDBRANCH   3   5
BRANCH   2  19
ATOM     19  C   UNL     1     114.423  94.664 123.026  1.00  0.00     0.109 C 
ATOM     20  C   UNL     1     113.950  93.230 122.743  1.00  0.00     0.036 C 
BRANCH  19  21
ATOM     21  C   UNL     1     115.776  94.957 122.470  1.00  0.00    -0.026 A 
ATOM     22  C   UNL     1     116.198  94.334 121.297  1.00  0.00     0.006 A 
ATOM     23  C   UNL     1     116.619  95.855 123.126  1.00  0.00     0.006 A 
ATOM     24  C   UNL     1     117.463  94.607 120.778  1.00  0.00     0.009 A 
ATOM     25  C   UNL     1     117.885  96.129 122.607  1.00  0.00     0.009 A 
ATOM     26  C   UNL     1     118.307  95.505 121.433  1.00  0.00    -0.018 A 
BRANCH  26  27
ATOM     27  C   UNL     1     119.619  95.789 120.894  1.00  0.00    -0.018 A 
ATOM     28  C   UNL     1     120.761  95.395 121.593  1.00  0.00     0.009 A 
ATOM     29  C   UNL     1     119.743  96.458 119.677  1.00  0.00     0.009 A 
ATOM     30  C   UNL     1     122.025  95.669 121.073  1.00  0.00     0.001 A 
ATOM     31  C   UNL     1     121.008  96.732 119.157  1.00  0.00     0.001 A 
ATOM     32  C   UNL     1     122.149  96.339 119.855  1.00  0.00     0.000 A 
ENDBRANCH  26  27
ENDBRANCH  19  21
ENDBRANCH   2  19
TORSDOF 5
ENDMDL
MODEL 4
REMARK VINA RESULT:      -7.9      5.695     11.015
REMARK SMILES Cc1cc(C)nc(-n2nc(C(=O)N[C@@H](C)c3ccc(-c4ccccc4)cc3)cc2C)n1
REMARK SMILES IDX 12 1 13 2 11 3 10 5 9 6 28 7 8 8 29 9 30 10 7 11 31 12 6 13
REMARK SMILES IDX 2 14 4 15 3 16 1 17 5 18 14 19 15 20 16 21 17 22 27 23 18 24
REMARK SMILES IDX 26 25 19 26 20 27 21 28 25 29 22 30 24 31 23 32
REMARK H PARENT 13 4
ROOT
ATOM      1  O   UNL     1     113.510  97.079 124.315  1.00  0.00    -0.267 OA
ATOM      2  N   UNL     1     113.404  95.570 122.559  1.00  0.00    -0.344 N 
ATOM      3  C   UNL     1     113.035  96.711 123.244  1.00  0.00     0.272 C 
ATOM      4  H   UNL     1     112.917  95.320 121.704  1.00  0.00     0.164 HD
ENDROOT
BRANCH   3   5
ATOM      5  C   UNL     1     111.957  97.516 122.614  1.00  0.00     0.151 A 
ATOM      6  N   UNL     1     112.230  98.733 122.134  1.00  0.00    -0.160 NA
ATOM      7  C   UNL     1     110.607  97.156 122.444  1.00  0.00     0.059 A 
ATOM      8  N   UNL     1     111.044  99.146 121.655  1.00  0.00    -0.202 N 
ATOM      9  C   UNL     1     110.039  98.237 121.816  1.00  0.00     0.045 A 
ATOM     10  C   UNL     1     108.651  98.469 121.369  1.00  0.00     0.067 C 
BRANCH   8  11
ATOM     11  C   UNL     1     110.936 100.403 121.063  1.00  0.00     0.251 A 
ATOM     12  N   UNL     1     109.836 101.120 121.367  1.00  0.00    -0.216 NA
ATOM     13  N   UNL     1     111.941 100.772 120.246  1.00  0.00    -0.216 NA
ATOM     14  C   UNL     1     109.763 102.330 120.776  1.00  0.00     0.043 A 
ATOM     15  C   UNL     1     111.804 101.994 119.689  1.00  0.00     0.043 A 
ATOM     16  C   UNL     1     110.726 102.824 119.920  1.00  0.00     0.047 A 
ATOM     17  C   UNL     1     108.559 103.155 121.085  1.00  0.00     0.067 C 
ATOM     18  C   UNL     1     112.894 102.440 118.776  1.00  0.00     0.067 C 
ENDBRANCH   8  11
ENDBRANCH   3   5
BRANCH   2  19
ATOM     19  C   UNL     1     114.427  94.666 123.058  1.00  0.00     0.109 C 
ATOM     20  C   UNL     1     113.983  93.211 122.840  1.00  0.00     0.036 C 
BRANCH  19  21
ATOM     21  C   UNL     1     115.770  94.963 122.483  1.00  0.00    -0.026 A 
ATOM     22  C   UNL     1     116.609  95.884 123.110  1.00  0.00     0.006 A 
ATOM     23  C   UNL     1     116.187  94.321 121.317  1.00  0.00     0.006 A 
ATOM     24  C   UNL     1     117.865  96.162 122.572  1.00  0.00     0.009 A 
ATOM     25  C   UNL     1     117.443  94.600 120.778  1.00  0.00     0.009 A 
ATOM     26  C   UNL     1     118.282  95.521 121.406  1.00  0.00    -0.018 A 
BRANCH  26  27
ATOM     27  C   UNL     1     119.585  95.810 120.848  1.00  0.00    -0.018 A 
ATOM     28  C   UNL     1     119.691  96.519 119.651  1.00  0.00     0.009 A 
ATOM     29  C   UNL     1     120.737  95.378 121.506  1.00  0.00     0.009 A 
ATOM     30  C   UNL     1     120.947  96.797 119.114  1.00  0.00     0.001 A 
ATOM     31  C   UNL     1     121.994  95.657 120.969  1.00  0.00     0.001 A 
ATOM     32  C   UNL     1     122.099  96.365 119.773  1.00  0.00     0.000 A 
ENDBRANCH  26  27
ENDBRANCH  19  21
ENDBRANCH   2  19
TORSDOF 5
ENDMDL
MODEL 5
REMARK VINA RESULT:      -7.9      5.582     10.749
REMARK SMILES Cc1cc(C)nc(-n2nc(C(=O)N[C@@H](C)c3ccc(-c4ccccc4)cc3)cc2C)n1
REMARK SMILES IDX 12 1 13 2 11 3 10 5 9 6 28 7 8 8 29 9 30 10 7 11 31 12 6 13
REMARK SMILES IDX 2 14 4 15 3 16 1 17 5 18 14 19 15 20 16 21 17 22 27 23 18 24
REMARK SMILES IDX 26 25 19 26 20 27 21 28 25 29 22 30 24 31 23 32
REMARK H PARENT 13 4
ROOT
ATOM      1  O   UNL     1     112.763  95.326 121.372  1.00  0.00    -0.267 OA
ATOM      2  N   UNL     1     113.490  95.378 123.573  1.00  0.00    -0.344 N 
ATOM      3  C   UNL     1     112.735  95.813 122.500  1.00  0.00     0.272 C 
ATOM      4  H   UNL     1     113.437  95.878 124.455  1.00  0.00     0.164 HD
ENDROOT
BRANCH   3   5
ATOM      5  C   UNL     1     111.853  96.977 122.766  1.00  0.00     0.151 A 
ATOM      6  N   UNL     1     111.513  97.796 121.766  1.00  0.00    -0.160 NA
ATOM      7  C   UNL     1     111.292  97.363 123.999  1.00  0.00     0.059 A 
ATOM      8  N   UNL     1     110.730  98.707 122.370  1.00  0.00    -0.202 N 
ATOM      9  C   UNL     1     110.566  98.492 123.707  1.00  0.00     0.045 A 
ATOM     10  C   UNL     1     109.750  99.361 124.578  1.00  0.00     0.067 C 
BRANCH   8  11
ATOM     11  C   UNL     1     110.176  99.746 121.625  1.00  0.00     0.251 A 
ATOM     12  N   UNL     1     111.029 100.687 121.175  1.00  0.00    -0.216 NA
ATOM     13  N   UNL     1     108.843  99.705 121.432  1.00  0.00    -0.216 NA
ATOM     14  C   UNL     1     110.459 101.678 120.459  1.00  0.00     0.043 A 
ATOM     15  C   UNL     1     108.340 100.726 120.707  1.00  0.00     0.043 A 
ATOM     16  C   UNL     1     109.107 101.750 120.191  1.00  0.00     0.047 A 
ATOM     17  C   UNL     1     111.369 102.742 119.944  1.00  0.00     0.067 C 
ATOM     18  C   UNL     1     106.868 100.719 120.472  1.00  0.00     0.067 C 
ENDBRANCH   8  11
ENDBRANCH   3   5
BRANCH   2  19
ATOM     19  C   UNL     1     114.419  94.266 123.465  1.00  0.00     0.109 C 
ATOM     20  C   UNL     1     113.724  93.075 122.787  1.00  0.00     0.036 C 
BRANCH  19  21
ATOM     21  C   UNL     1     115.693  94.660 122.798  1.00  0.00    -0.026 A 
ATOM     22  C   UNL     1     116.088  94.029 121.618  1.00  0.00     0.006 A 
ATOM     23  C   UNL     1     116.491  95.660 123.355  1.00  0.00     0.006 A 
ATOM     24  C   UNL     1     117.279  94.398 120.995  1.00  0.00     0.009 A 
ATOM     25  C   UNL     1     117.683  96.028 122.732  1.00  0.00     0.009 A 
ATOM     26  C   UNL     1     118.078  95.397 121.552  1.00  0.00    -0.018 A 
BRANCH  26  27
ATOM     27  C   UNL     1     119.314  95.779 120.905  1.00  0.00    -0.018 A 
ATOM     28  C   UNL     1     119.284  96.553 119.743  1.00  0.00     0.009 A 
ATOM     29  C   UNL     1     120.536  95.375 121.442  1.00  0.00     0.009 A 
ATOM     30  C   UNL     1     120.475  96.922 119.121  1.00  0.00     0.001 A 
ATOM     31  C   UNL     1     121.728  95.745 120.819  1.00  0.00     0.001 A 
ATOM     32  C   UNL     1     121.698  96.517 119.658  1.00  0.00     0.000 A 
ENDBRANCH  26  27
ENDBRANCH  19  21
ENDBRANCH   2  19
TORSDOF 5
ENDMDL
MODEL 6
REMARK VINA RESULT:      -7.9      5.670     10.771
REMARK SMILES Cc1cc(C)nc(-n2nc(C(=O)N[C@@H](C)c3ccc(-c4ccccc4)cc3)cc2C)n1
REMARK SMILES IDX 12 1 13 2 11 3 10 5 9 6 28 7 8 8 29 9 30 10 7 11 31 12 6 13
REMARK SMILES IDX 2 14 4 15 3 16 1 17 5 18 14 19 15 20 16 21 17 22 27 23 18 24
REMARK SMILES IDX 26 25 19 26 20 27 21 28 25 29 22 30 24 31 23 32
REMARK H PARENT 13 4
ROOT
ATOM      1  O   UNL     1     112.765  95.375 121.363  1.00  0.00    -0.267 OA
ATOM      2  N   UNL     1     113.475  95.460 123.567  1.00  0.00    -0.344 N 
ATOM      3  C   UNL     1     112.732  95.881 122.482  1.00  0.00     0.272 C 
ATOM      4  H   UNL     1     113.419  95.975 124.441  1.00  0.00     0.164 HD
ENDROOT
BRANCH   3   5
ATOM      5  C   UNL     1     111.856  97.057 122.721  1.00  0.00     0.151 A 
ATOM      6  N   UNL     1     111.625  97.925 121.732  1.00  0.00    -0.160 NA
ATOM      7  C   UNL     1     111.197  97.405 123.915  1.00  0.00     0.059 A 
ATOM      8  N   UNL     1     110.813  98.830 122.305  1.00  0.00    -0.202 N 
ATOM      9  C   UNL     1     110.526  98.564 123.612  1.00  0.00     0.045 A 
ATOM     10  C   UNL     1     109.656  99.417 124.445  1.00  0.00     0.067 C 
BRANCH   8  11
ATOM     11  C   UNL     1     110.350  99.915 121.560  1.00  0.00     0.251 A 
ATOM     12  N   UNL     1     109.030  99.940 121.290  1.00  0.00    -0.216 NA
ATOM     13  N   UNL     1     111.270 100.824 121.185  1.00  0.00    -0.216 NA
ATOM     14  C   UNL     1     108.617 101.002 120.567  1.00  0.00     0.043 A 
ATOM     15  C   UNL     1     110.788 101.859 120.466  1.00  0.00     0.043 A 
ATOM     16  C   UNL     1     109.459 102.002 120.124  1.00  0.00     0.047 A 
ATOM     17  C   UNL     1     107.162 101.067 120.245  1.00  0.00     0.067 C 
ATOM     18  C   UNL     1     111.774 102.889 120.030  1.00  0.00     0.067 C 
ENDBRANCH   8  11
ENDBRANCH   3   5
BRANCH   2  19
ATOM     19  C   UNL     1     114.396  94.339 123.486  1.00  0.00     0.109 C 
ATOM     20  C   UNL     1     113.698  93.142 122.825  1.00  0.00     0.036 C 
BRANCH  19  21
ATOM     21  C   UNL     1     115.679  94.712 122.822  1.00  0.00    -0.026 A 
ATOM     22  C   UNL     1     116.063  94.079 121.640  1.00  0.00     0.006 A 
ATOM     23  C   UNL     1     116.494  95.696 123.383  1.00  0.00     0.006 A 
ATOM     24  C   UNL     1     117.261  94.428 121.020  1.00  0.00     0.009 A 
ATOM     25  C   UNL     1     117.693  96.045 122.762  1.00  0.00     0.009 A 
ATOM     26  C   UNL     1     118.077  95.410 121.581  1.00  0.00    -0.018 A 
BRANCH  26  27
ATOM     27  C   UNL     1     119.321  95.772 120.936  1.00  0.00    -0.018 A 
ATOM     28  C   UNL     1     119.305  96.541 119.771  1.00  0.00     0.009 A 
ATOM     29  C   UNL     1     120.535  95.353 121.479  1.00  0.00     0.009 A 
ATOM     30  C   UNL     1     120.504  96.890 119.151  1.00  0.00     0.001 A 
ATOM     31  C   UNL     1     121.735  95.703 120.858  1.00  0.00     0.001 A 
ATOM     32  C   UNL     1     121.719  96.471 119.694  1.00  0.00     0.000 A 
ENDBRANCH  26  27
ENDBRANCH  19  21
ENDBRANCH   2  19
TORSDOF 5
ENDMDL
MODEL 7
REMARK VINA RESULT:      -7.6      4.856     11.028
REMARK SMILES Cc1cc(C)nc(-n2nc(C(=O)N[C@@H](C)c3ccc(-c4ccccc4)cc3)cc2C)n1
REMARK SMILES IDX 12 1 13 2 11 3 10 5 9 6 28 7 8 8 29 9 30 10 7 11 31 12 6 13
REMARK SMILES IDX 2 14 4 15 3 16 1 17 5 18 14 19 15 20 16 21 17 22 27 23 18 24
REMARK SMILES IDX 26 25 19 26 20 27 21 28 25 29 22 30 24 31 23 32
REMARK H PARENT 13 4
ROOT
ATOM      1  O   UNL     1     113.620  97.297 124.557  1.00  0.00    -0.267 OA
ATOM      2  N   UNL     1     113.457  95.847 122.755  1.00  0.00    -0.344 N 
ATOM      3  C   UNL     1     113.131  96.980 123.475  1.00  0.00     0.272 C 
ATOM      4  H   UNL     1     112.961  95.643 121.893  1.00  0.00     0.164 HD
ENDROOT
BRANCH   3   5
ATOM      5  C   UNL     1     112.085  97.844 122.871  1.00  0.00     0.151 A 
ATOM      6  N   UNL     1     110.808  97.696 123.236  1.00  0.00    -0.160 NA
ATOM      7  C   UNL     1     112.261  98.858 121.910  1.00  0.00     0.059 A 
ATOM      8  N   UNL     1     110.171  98.623 122.500  1.00  0.00    -0.202 N 
ATOM      9  C   UNL     1     110.997  99.346 121.689  1.00  0.00     0.045 A 
ATOM     10  C   UNL     1     110.524 100.418 120.792  1.00  0.00     0.067 C 
BRANCH   8  11
ATOM     11  C   UNL     1     108.789  98.768 122.614  1.00  0.00     0.251 A 
ATOM     12  N   UNL     1     108.051  98.358 121.563  1.00  0.00    -0.216 NA
ATOM     13  N   UNL     1     108.333  99.305 123.762  1.00  0.00    -0.216 NA
ATOM     14  C   UNL     1     106.719  98.514 121.707  1.00  0.00     0.043 A 
ATOM     15  C   UNL     1     106.991  99.431 123.838  1.00  0.00     0.043 A 
ATOM     16  C   UNL     1     106.127  99.050 122.833  1.00  0.00     0.047 A 
ATOM     17  C   UNL     1     105.866  98.074 120.565  1.00  0.00     0.067 C 
ATOM     18  C   UNL     1     106.444 100.023 125.093  1.00  0.00     0.067 C 
ENDBRANCH   8  11
ENDBRANCH   3   5
BRANCH   2  19
ATOM     19  C   UNL     1     114.445  94.890 123.226  1.00  0.00     0.109 C 
ATOM     20  C   UNL     1     113.933  93.461 122.990  1.00  0.00     0.036 C 
BRANCH  19  21
ATOM     21  C   UNL     1     115.793  95.136 122.637  1.00  0.00    -0.026 A 
ATOM     22  C   UNL     1     116.175  94.476 121.469  1.00  0.00     0.006 A 
ATOM     23  C   UNL     1     116.670  96.028 123.254  1.00  0.00     0.006 A 
ATOM     24  C   UNL     1     117.435  94.707 120.919  1.00  0.00     0.009 A 
ATOM     25  C   UNL     1     117.931  96.258 122.703  1.00  0.00     0.009 A 
ATOM     26  C   UNL     1     118.314  95.597 121.536  1.00  0.00    -0.018 A 
BRANCH  26  27
ATOM     27  C   UNL     1     119.621  95.837 120.964  1.00  0.00    -0.018 A 
ATOM     28  C   UNL     1     120.769  95.484 121.675  1.00  0.00     0.009 A 
ATOM     29  C   UNL     1     119.734  96.422 119.703  1.00  0.00     0.009 A 
ATOM     30  C   UNL     1     122.028  95.714 121.124  1.00  0.00     0.001 A 
ATOM     31  C   UNL     1     120.994  96.652 119.151  1.00  0.00     0.001 A 
ATOM     32  C   UNL     1     122.141  96.300 119.862  1.00  0.00     0.000 A 
ENDBRANCH  26  27
ENDBRANCH  19  21
ENDBRANCH   2  19
TORSDOF 5
ENDMDL
MODEL 8
REMARK VINA RESULT:      -7.6      6.090      7.147
REMARK SMILES Cc1cc(C)nc(-n2nc(C(=O)N[C@@H](C)c3ccc(-c4ccccc4)cc3)cc2C)n1
REMARK SMILES IDX 12 1 13 2 11 3 10 5 9 6 28 7 8 8 29 9 30 10 7 11 31 12 6 13
REMARK SMILES IDX 2 14 4 15 3 16 1 17 5 18 14 19 15 20 16 21 17 22 27 23 18 24
REMARK SMILES IDX 26 25 19 26 20 27 21 28 25 29 22 30 24 31 23 32
REMARK H PARENT 13 4
ROOT
ATOM      1  O   UNL     1     104.398  98.562 119.477  1.00  0.00    -0.267 OA
ATOM      2  N   UNL     1     103.715  99.444 117.445  1.00  0.00    -0.344 N 
ATOM      3  C   UNL     1     104.364  99.483 118.663  1.00  0.00     0.272 C 
ATOM      4  H   UNL     1     103.699 100.275 116.861  1.00  0.00     0.164 HD
ENDROOT
BRANCH   3   5
ATOM      5  C   UNL     1     105.039 100.765 118.990  1.00  0.00     0.151 A 
ATOM      6  N   UNL     1     106.150 100.759 119.733  1.00  0.00    -0.160 NA
ATOM      7  C   UNL     1     104.649 102.061 118.605  1.00  0.00     0.059 A 
ATOM      8  N   UNL     1     106.466 102.063 119.818  1.00  0.00    -0.202 N 
ATOM      9  C   UNL     1     105.598 102.884 119.160  1.00  0.00     0.045 A 
ATOM     10  C   UNL     1     105.741 104.353 119.114  1.00  0.00     0.067 C 
BRANCH   8  11
ATOM     11  C   UNL     1     107.595 102.457 120.535  1.00  0.00     0.251 A 
ATOM     12  N   UNL     1     107.406 102.771 121.832  1.00  0.00    -0.216 NA
ATOM     13  N   UNL     1     108.758 102.485 119.858  1.00  0.00    -0.216 NA
ATOM     14  C   UNL     1     108.519 103.149 122.494  1.00  0.00     0.043 A 
ATOM     15  C   UNL     1     109.830 102.871 120.581  1.00  0.00     0.043 A 
ATOM     16  C   UNL     1     109.770 103.218 121.915  1.00  0.00     0.047 A 
ATOM     17  C   UNL     1     108.353 103.507 123.933  1.00  0.00     0.067 C 
ATOM     18  C   UNL     1     111.139 102.918 119.868  1.00  0.00     0.067 C 
ENDBRANCH   8  11
ENDBRANCH   3   5
BRANCH   2  19
ATOM     19  C   UNL     1     102.988  98.270 116.992  1.00  0.00     0.109 C 
ATOM     20  C   UNL     1     101.597  98.684 116.489  1.00  0.00     0.036 C 
BRANCH  19  21
ATOM     21  C   UNL     1     103.763  97.478 115.993  1.00  0.00    -0.026 A 
ATOM     22  C   UNL     1     104.992  96.920 116.347  1.00  0.00     0.006 A 
ATOM     23  C   UNL     1     103.259  97.297 114.705  1.00  0.00     0.006 A 
ATOM     24  C   UNL     1     105.716  96.181 115.413  1.00  0.00     0.009 A 
ATOM     25  C   UNL     1     103.984  96.557 113.771  1.00  0.00     0.009 A 
ATOM     26  C   UNL     1     105.213  96.000 114.125  1.00  0.00    -0.018 A 
BRANCH  26  27
ATOM     27  C   UNL     1     105.965  95.232 113.156  1.00  0.00    -0.018 A 
ATOM     28  C   UNL     1     105.764  95.442 111.791  1.00  0.00     0.009 A 
ATOM     29  C   UNL     1     106.890  94.281 113.586  1.00  0.00     0.009 A 
ATOM     30  C   UNL     1     106.488  94.703 110.857  1.00  0.00     0.001 A 
ATOM     31  C   UNL     1     107.615  93.541 112.652  1.00  0.00     0.001 A 
ATOM     32  C   UNL     1     107.414  93.751 111.288  1.00  0.00     0.000 A 
ENDBRANCH  26  27
ENDBRANCH  19  21
ENDBRANCH   2  19
TORSDOF 5
ENDMDL
MODEL 9
REMARK VINA RESULT:      -7.6      6.043      6.976
REMARK SMILES Cc1cc(C)nc(-n2nc(C(=O)N[C@@H](C)c3ccc(-c4ccccc4)cc3)cc2C)n1
REMARK SMILES IDX 12 1 13 2 11 3 10 5 9 6 28 7 8 8 29 9 30 10 7 11 31 12 6 13
REMARK SMILES IDX 2 14 4 15 3 16 1 17 5 18 14 19 15 20 16 21 17 22 27 23 18 24
REMARK SMILES IDX 26 25 19 26 20 27 21 28 25 29 22 30 24 31 23 32
REMARK H PARENT 13 4
ROOT
ATOM      1  O   UNL     1     104.655  98.484 119.555  1.00  0.00    -0.267 OA
ATOM      2  N   UNL     1     103.795  99.351 117.584  1.00  0.00    -0.344 N 
ATOM      3  C   UNL     1     104.523  99.409 118.757  1.00  0.00     0.272 C 
ATOM      4  H   UNL     1     103.701 100.185 117.013  1.00  0.00     0.164 HD
ENDROOT
BRANCH   3   5
ATOM      5  C   UNL     1     105.159 100.718 119.053  1.00  0.00     0.151 A 
ATOM      6  N   UNL     1     106.280 100.762 119.779  1.00  0.00    -0.160 NA
ATOM      7  C   UNL     1     104.720 101.994 118.653  1.00  0.00     0.059 A 
ATOM      8  N   UNL     1     106.553 102.078 119.838  1.00  0.00    -0.202 N 
ATOM      9  C   UNL     1     105.648 102.858 119.180  1.00  0.00     0.045 A 
ATOM     10  C   UNL     1     105.741 104.329 119.108  1.00  0.00     0.067 C 
BRANCH   8  11
ATOM     11  C   UNL     1     107.678 102.521 120.532  1.00  0.00     0.251 A 
ATOM     12  N   UNL     1     108.847 102.496 119.861  1.00  0.00    -0.216 NA
ATOM     13  N   UNL     1     107.483 102.926 121.801  1.00  0.00    -0.216 NA
ATOM     14  C   UNL     1     109.915 102.930 120.562  1.00  0.00     0.043 A 
ATOM     15  C   UNL     1     108.593 103.347 122.443  1.00  0.00     0.043 A 
ATOM     16  C   UNL     1     109.847 103.372 121.868  1.00  0.00     0.047 A 
ATOM     17  C   UNL     1     111.229 102.918 119.857  1.00  0.00     0.067 C 
ATOM     18  C   UNL     1     108.420 103.803 123.852  1.00  0.00     0.067 C 
ENDBRANCH   8  11
ENDBRANCH   3   5
BRANCH   2  19
ATOM     19  C   UNL     1     103.094  98.148 117.168  1.00  0.00     0.109 C 
ATOM     20  C   UNL     1     101.664  98.506 116.736  1.00  0.00     0.036 C 
BRANCH  19  21
ATOM     21  C   UNL     1     103.849  97.388 116.130  1.00  0.00    -0.026 A 
ATOM     22  C   UNL     1     105.019  96.713 116.473  1.00  0.00     0.006 A 
ATOM     23  C   UNL     1     103.382  97.353 114.815  1.00  0.00     0.006 A 
ATOM     24  C   UNL     1     105.725  96.002 115.503  1.00  0.00     0.009 A 
ATOM     25  C   UNL     1     104.088  96.642 113.844  1.00  0.00     0.009 A 
ATOM     26  C   UNL     1     105.260  95.967 114.188  1.00  0.00    -0.018 A 
BRANCH  26  27
ATOM     27  C   UNL     1     105.991  95.230 113.181  1.00  0.00    -0.018 A 
ATOM     28  C   UNL     1     106.913  94.253 113.563  1.00  0.00     0.009 A 
ATOM     29  C   UNL     1     105.777  95.495 111.829  1.00  0.00     0.009 A 
ATOM     30  C   UNL     1     107.617  93.542 112.592  1.00  0.00     0.001 A 
ATOM     31  C   UNL     1     106.481  94.784 110.857  1.00  0.00     0.001 A 
ATOM     32  C   UNL     1     107.402  93.808 111.239  1.00  0.00     0.000 A 
ENDBRANCH  26  27
ENDBRANCH  19  21
ENDBRANCH   2  19
TORSDOF 5
ENDMDL
MODEL 10
REMARK VINA RESULT:      -7.6      1.792      3.787
REMARK SMILES Cc1cc(C)nc(-n2nc(C(=O)N[C@@H](C)c3ccc(-c4ccccc4)cc3)cc2C)n1
REMARK SMILES IDX 12 1 13 2 11 3 10 5 9 6 28 7 8 8 29 9 30 10 7 11 31 12 6 13
REMARK SMILES IDX 2 14 4 15 3 16 1 17 5 18 14 19 15 20 16 21 17 22 27 23 18 24
REMARK SMILES IDX 26 25 19 26 20 27 21 28 25 29 22 30 24 31 23 32
REMARK H PARENT 13 4
ROOT
ATOM      1  O   UNL     1     109.451  93.927 118.594  1.00  0.00    -0.267 OA
ATOM      2  N   UNL     1     107.573  94.664 119.735  1.00  0.00    -0.344 N 
ATOM      3  C   UNL     1     108.928  94.602 119.478  1.00  0.00     0.272 C 
ATOM      4  H   UNL     1     107.238  95.211 120.522  1.00  0.00     0.164 HD
ENDROOT
BRANCH   3   5
ATOM      5  C   UNL     1     109.790  95.410 120.379  1.00  0.00     0.151 A 
ATOM      6  N   UNL     1     109.432  96.657 120.699  1.00  0.00    -0.160 NA
ATOM      7  C   UNL     1     111.004  95.022 120.977  1.00  0.00     0.059 A 
ATOM      8  N   UNL     1     110.428  97.062 121.506  1.00  0.00    -0.202 N 
ATOM      9  C   UNL     1     111.394  96.119 121.705  1.00  0.00     0.045 A 
ATOM     10  C   UNL     1     112.582  96.337 122.553  1.00  0.00     0.067 C 
BRANCH   8  11
ATOM     11  C   UNL     1     110.399  98.345 122.051  1.00  0.00     0.251 A 
ATOM     12  N   UNL     1     109.833  98.471 123.267  1.00  0.00    -0.216 NA
ATOM     13  N   UNL     1     110.938  99.328 121.304  1.00  0.00    -0.216 NA
ATOM     14  C   UNL     1     109.821  99.726 123.762  1.00  0.00     0.043 A 
ATOM     15  C   UNL     1     110.893 100.556 121.860  1.00  0.00     0.043 A 
ATOM     16  C   UNL     1     110.342 100.818 123.098  1.00  0.00     0.047 A 
ATOM     17  C   UNL     1     109.202  99.909 125.107  1.00  0.00     0.067 C 
ATOM     18  C   UNL     1     111.478 101.674 121.065  1.00  0.00     0.067 C 
ENDBRANCH   8  11
ENDBRANCH   3   5
BRANCH   2  19
ATOM     19  C   UNL     1     106.603  93.911 118.957  1.00  0.00     0.109 C 
ATOM     20  C   UNL     1     105.390  93.567 119.835  1.00  0.00     0.036 C 
BRANCH  19  21
ATOM     21  C   UNL     1     106.234  94.610 117.692  1.00  0.00    -0.026 A 
ATOM     22  C   UNL     1     105.569  95.835 117.739  1.00  0.00     0.006 A 
ATOM     23  C   UNL     1     106.554  94.037 116.461  1.00  0.00     0.006 A 
ATOM     24  C   UNL     1     105.224  96.487 116.557  1.00  0.00     0.009 A 
ATOM     25  C   UNL     1     106.208  94.689 115.277  1.00  0.00     0.009 A 
ATOM     26  C   UNL     1     105.543  95.915 115.325  1.00  0.00    -0.018 A 
BRANCH  26  27
ATOM     27  C   UNL     1     105.185  96.592 114.098  1.00  0.00    -0.018 A 
ATOM     28  C   UNL     1     106.182  97.020 113.221  1.00  0.00     0.009 A 
ATOM     29  C   UNL     1     103.843  96.817 113.791  1.00  0.00     0.009 A 
ATOM     30  C   UNL     1     105.837  97.672 112.038  1.00  0.00     0.001 A 
ATOM     31  C   UNL     1     103.498  97.470 112.608  1.00  0.00     0.001 A 
ATOM     32  C   UNL     1     104.494  97.898 111.732  1.00  0.00     0.000 A 
ENDBRANCH  26  27
ENDBRANCH  19  21
ENDBRANCH   2  19
TORSDOF 5
ENDMDL
MODEL 11
REMARK VINA RESULT:      -7.5      7.106     12.643
REMARK SMILES Cc1cc(C)nc(-n2nc(C(=O)N[C@@H](C)c3ccc(-c4ccccc4)cc3)cc2C)n1
REMARK SMILES IDX 12 1 13 2 11 3 10 5 9 6 28 7 8 8 29 9 30 10 7 11 31 12 6 13
REMARK SMILES IDX 2 14 4 15 3 16 1 17 5 18 14 19 15 20 16 21 17 22 27 23 18 24
REMARK SMILES IDX 26 25 19 26 20 27 21 28 25 29 22 30 24 31 23 32
REMARK H PARENT 13 4
ROOT
ATOM      1  O   UNL     1     114.384 103.327 117.463  1.00  0.00    -0.267 OA
ATOM      2  N   UNL     1     115.726 102.455 119.140  1.00  0.00    -0.344 N 
ATOM      3  C   UNL     1     114.552 102.971 118.627  1.00  0.00     0.272 C 
ATOM      4  H   UNL     1     115.784 102.237 120.131  1.00  0.00     0.164 HD
ENDROOT
BRANCH   3   5
ATOM      5  C   UNL     1     113.436 103.116 119.597  1.00  0.00     0.151 A 
ATOM      6  N   UNL     1     112.236 102.603 119.310  1.00  0.00    -0.160 NA
ATOM      7  C   UNL     1     113.468 103.757 120.849  1.00  0.00     0.059 A 
ATOM      8  N   UNL     1     111.502 102.922 120.390  1.00  0.00    -0.202 N 
ATOM      9  C   UNL     1     112.194 103.613 121.341  1.00  0.00     0.045 A 
ATOM     10  C   UNL     1     111.597 104.070 122.612  1.00  0.00     0.067 C 
BRANCH   8  11
ATOM     11  C   UNL     1     110.162 102.543 120.453  1.00  0.00     0.251 A 
ATOM     12  N   UNL     1     109.911 101.285 120.866  1.00  0.00    -0.216 NA
ATOM     13  N   UNL     1     109.256 103.472 120.094  1.00  0.00    -0.216 NA
ATOM     14  C   UNL     1     108.605 100.951 120.914  1.00  0.00     0.043 A 
ATOM     15  C   UNL     1     107.969 103.072 120.167  1.00  0.00     0.043 A 
ATOM     16  C   UNL     1     107.580 101.811 120.573  1.00  0.00     0.047 A 
ATOM     17  C   UNL     1     108.283  99.565 121.363  1.00  0.00     0.067 C 
ATOM     18  C   UNL     1     106.933 104.070 119.776  1.00  0.00     0.067 C 
ENDBRANCH   8  11
ENDBRANCH   3   5
BRANCH   2  19
ATOM     19  C   UNL     1     116.914 102.276 118.324  1.00  0.00     0.109 C 
ATOM     20  C   UNL     1     117.679 103.604 118.224  1.00  0.00     0.036 C 
BRANCH  19  21
ATOM     21  C   UNL     1     117.760 101.144 118.803  1.00  0.00    -0.026 A 
ATOM     22  C   UNL     1     117.616  99.878 118.238  1.00  0.00     0.006 A 
ATOM     23  C   UNL     1     118.696 101.355 119.816  1.00  0.00     0.006 A 
ATOM     24  C   UNL     1     118.407  98.821 118.686  1.00  0.00     0.009 A 
ATOM     25  C   UNL     1     119.487 100.297 120.265  1.00  0.00     0.009 A 
ATOM     26  C   UNL     1     119.342  99.029 119.700  1.00  0.00    -0.018 A 
BRANCH  26  27
ATOM     27  C   UNL     1     120.163  97.933 120.164  1.00  0.00    -0.018 A 
ATOM     28  C   UNL     1     120.106  97.535 121.501  1.00  0.00     0.009 A 
ATOM     29  C   UNL     1     121.013  97.273 119.277  1.00  0.00     0.009 A 
ATOM     30  C   UNL     1     120.897  96.478 121.948  1.00  0.00     0.001 A 
ATOM     31  C   UNL     1     121.804  96.214 119.724  1.00  0.00     0.001 A 
ATOM     32  C   UNL     1     121.747  95.818 121.060  1.00  0.00     0.000 A 
ENDBRANCH  26  27
ENDBRANCH  19  21
ENDBRANCH   2  19
TORSDOF 5
ENDMDL
MODEL 12
REMARK VINA RESULT:      -7.5      7.097     12.688
REMARK SMILES Cc1cc(C)nc(-n2nc(C(=O)N[C@@H](C)c3ccc(-c4ccccc4)cc3)cc2C)n1
REMARK SMILES IDX 12 1 13 2 11 3 10 5 9 6 28 7 8 8 29 9 30 10 7 11 31 12 6 13
REMARK SMILES IDX 2 14 4 15 3 16 1 17 5 18 14 19 15 20 16 21 17 22 27 23 18 24
REMARK SMILES IDX 26 25 19 26 20 27 21 28 25 29 22 30 24 31 23 32
REMARK H PARENT 13 4
ROOT
ATOM      1  O   UNL     1     114.382 103.311 117.474  1.00  0.00    -0.267 OA
ATOM      2  N   UNL     1     115.724 102.441 119.152  1.00  0.00    -0.344 N 
ATOM      3  C   UNL     1     114.549 102.955 118.638  1.00  0.00     0.272 C 
ATOM      4  H   UNL     1     115.782 102.222 120.143  1.00  0.00     0.164 HD
ENDROOT
BRANCH   3   5
ATOM      5  C   UNL     1     113.432 103.096 119.607  1.00  0.00     0.151 A 
ATOM      6  N   UNL     1     112.230 102.592 119.313  1.00  0.00    -0.160 NA
ATOM      7  C   UNL     1     113.465 103.725 120.866  1.00  0.00     0.059 A 
ATOM      8  N   UNL     1     111.496 102.904 120.394  1.00  0.00    -0.202 N 
ATOM      9  C   UNL     1     112.189 103.583 121.354  1.00  0.00     0.045 A 
ATOM     10  C   UNL     1     111.592 104.031 122.627  1.00  0.00     0.067 C 
BRANCH   8  11
ATOM     11  C   UNL     1     110.153 102.532 120.451  1.00  0.00     0.251 A 
ATOM     12  N   UNL     1     109.252 103.468 120.094  1.00  0.00    -0.216 NA
ATOM     13  N   UNL     1     109.895 101.275 120.860  1.00  0.00    -0.216 NA
ATOM     14  C   UNL     1     107.964 103.074 120.162  1.00  0.00     0.043 A 
ATOM     15  C   UNL     1     108.586 100.947 120.903  1.00  0.00     0.043 A 
ATOM     16  C   UNL     1     107.568 101.814 120.563  1.00  0.00     0.047 A 
ATOM     17  C   UNL     1     106.934 104.082 119.776  1.00  0.00     0.067 C 
ATOM     18  C   UNL     1     108.255  99.564 121.352  1.00  0.00     0.067 C 
ENDBRANCH   8  11
ENDBRANCH   3   5
BRANCH   2  19
ATOM     19  C   UNL     1     116.914 102.265 118.337  1.00  0.00     0.109 C 
ATOM     20  C   UNL     1     117.676 103.595 118.241  1.00  0.00     0.036 C 
BRANCH  19  21
ATOM     21  C   UNL     1     117.761 101.134 118.815  1.00  0.00    -0.026 A 
ATOM     22  C   UNL     1     117.601  99.862 118.265  1.00  0.00     0.006 A 
ATOM     23  C   UNL     1     118.712 101.349 119.812  1.00  0.00     0.006 A 
ATOM     24  C   UNL     1     118.393  98.806 118.712  1.00  0.00     0.009 A 
ATOM     25  C   UNL     1     119.504 100.292 120.259  1.00  0.00     0.009 A 
ATOM     26  C   UNL     1     119.344  99.019 119.709  1.00  0.00    -0.018 A 
BRANCH  26  27
ATOM     27  C   UNL     1     120.166  97.923 120.173  1.00  0.00    -0.018 A 
ATOM     28  C   UNL     1     121.021  97.268 119.285  1.00  0.00     0.009 A 
ATOM     29  C   UNL     1     120.104  97.520 121.506  1.00  0.00     0.009 A 
ATOM     30  C   UNL     1     121.814  96.211 119.732  1.00  0.00     0.001 A 
ATOM     31  C   UNL     1     120.898  96.463 121.954  1.00  0.00     0.001 A 
ATOM     32  C   UNL     1     121.751  95.808 121.067  1.00  0.00     0.000 A 
ENDBRANCH  26  27
ENDBRANCH  19  21
ENDBRANCH   2  19
TORSDOF 5
ENDMDL
MODEL 13
REMARK VINA RESULT:      -7.5      7.537     12.647
REMARK SMILES Cc1cc(C)nc(-n2nc(C(=O)N[C@@H](C)c3ccc(-c4ccccc4)cc3)cc2C)n1
REMARK SMILES IDX 12 1 13 2 11 3 10 5 9 6 28 7 8 8 29 9 30 10 7 11 31 12 6 13
REMARK SMILES IDX 2 14 4 15 3 16 1 17 5 18 14 19 15 20 16 21 17 22 27 23 18 24
REMARK SMILES IDX 26 25 19 26 20 27 21 28 25 29 22 30 24 31 23 32
REMARK H PARENT 13 4
ROOT
ATOM      1  O   UNL     1     113.698 102.997 117.618  1.00  0.00    -0.267 OA
ATOM      2  N   UNL     1     114.839 102.082 119.416  1.00  0.00    -0.344 N 
ATOM      3  C   UNL     1     113.705 102.451 118.718  1.00  0.00     0.272 C 
ATOM      4  H   UNL     1     114.746 101.681 120.344  1.00  0.00     0.164 HD
ENDROOT
BRANCH   3   5
ATOM      5  C   UNL     1     112.414 102.170 119.398  1.00  0.00     0.151 A 
ATOM      6  N   UNL     1     111.592 103.178 119.704  1.00  0.00    -0.160 NA
ATOM      7  C   UNL     1     111.906 100.917 119.787  1.00  0.00     0.059 A 
ATOM      8  N   UNL     1     110.555 102.557 120.292  1.00  0.00    -0.202 N 
ATOM      9  C   UNL     1     110.694 101.202 120.366  1.00  0.00     0.045 A 
ATOM     10  C   UNL     1     109.684 100.311 120.970  1.00  0.00     0.067 C 
BRANCH   8  11
ATOM     11  C   UNL     1     109.474 103.305 120.758  1.00  0.00     0.251 A 
ATOM     12  N   UNL     1     109.598 103.842 121.988  1.00  0.00    -0.216 NA
ATOM     13  N   UNL     1     108.416 103.412 119.931  1.00  0.00    -0.216 NA
ATOM     14  C   UNL     1     108.534 104.557 122.406  1.00  0.00     0.043 A 
ATOM     15  C   UNL     1     107.388 104.142 120.413  1.00  0.00     0.043 A 
ATOM     16  C   UNL     1     107.391 104.743 121.655  1.00  0.00     0.047 A 
ATOM     17  C   UNL     1     108.629 105.167 123.765  1.00  0.00     0.067 C 
ATOM     18  C   UNL     1     106.195 104.285 119.530  1.00  0.00     0.067 C 
ENDBRANCH   8  11
ENDBRANCH   3   5
BRANCH   2  19
ATOM     19  C   UNL     1     116.176 102.311 118.895  1.00  0.00     0.109 C 
ATOM     20  C   UNL     1     116.672 103.697 119.336  1.00  0.00     0.036 C 
BRANCH  19  21
ATOM     21  C   UNL     1     117.116 101.209 119.253  1.00  0.00    -0.026 A 
ATOM     22  C   UNL     1     116.685  99.884 119.211  1.00  0.00     0.006 A 
ATOM     23  C   UNL     1     118.426 101.505 119.629  1.00  0.00     0.006 A 
ATOM     24  C   UNL     1     117.563  98.854 119.545  1.00  0.00     0.009 A 
ATOM     25  C   UNL     1     119.305 100.475 119.963  1.00  0.00     0.009 A 
ATOM     26  C   UNL     1     118.873  99.149 119.922  1.00  0.00    -0.018 A 
BRANCH  26  27
ATOM     27  C   UNL     1     119.784  98.080 120.268  1.00  0.00    -0.018 A 
ATOM     28  C   UNL     1     120.478  97.402 119.265  1.00  0.00     0.009 A 
ATOM     29  C   UNL     1     119.970  97.727 121.604  1.00  0.00     0.009 A 
ATOM     30  C   UNL     1     121.356  96.372 119.599  1.00  0.00     0.001 A 
ATOM     31  C   UNL     1     120.850  96.698 121.939  1.00  0.00     0.001 A 
ATOM     32  C   UNL     1     121.542  96.019 120.936  1.00  0.00     0.000 A 
ENDBRANCH  26  27
ENDBRANCH  19  21
ENDBRANCH   2  19
TORSDOF 5
ENDMDL
MODEL 14
REMARK VINA RESULT:      -7.5      5.936      7.507
REMARK SMILES Cc1cc(C)nc(-n2nc(C(=O)N[C@@H](C)c3ccc(-c4ccccc4)cc3)cc2C)n1
REMARK SMILES IDX 12 1 13 2 11 3 10 5 9 6 28 7 8 8 29 9 30 10 7 11 31 12 6 13
REMARK SMILES IDX 2 14 4 15 3 16 1 17 5 18 14 19 15 20 16 21 17 22 27 23 18 24
REMARK SMILES IDX 26 25 19 26 20 27 21 28 25 29 22 30 24 31 23 32
REMARK H PARENT 13 4
ROOT
ATOM      1  O   UNL     1     106.494  98.026 120.833  1.00  0.00    -0.267 OA
ATOM      2  N   UNL     1     105.026  98.097 119.040  1.00  0.00    -0.344 N 
ATOM      3  C   UNL     1     105.828  98.657 120.015  1.00  0.00     0.272 C 
ATOM      4  H   UNL     1     104.472  98.702 118.441  1.00  0.00     0.164 HD
ENDROOT
BRANCH   3   5
ATOM      5  C   UNL     1     105.839 100.142 120.063  1.00  0.00     0.151 A 
ATOM      6  N   UNL     1     106.219 100.768 121.181  1.00  0.00    -0.160 NA
ATOM      7  C   UNL     1     105.484 101.034 119.034  1.00  0.00     0.059 A 
ATOM      8  N   UNL     1     106.104 102.067 120.857  1.00  0.00    -0.202 N 
ATOM      9  C   UNL     1     105.667 102.280 119.582  1.00  0.00     0.045 A 
ATOM     10  C   UNL     1     105.464 103.623 119.004  1.00  0.00     0.067 C 
BRANCH   8  11
ATOM     11  C   UNL     1     106.421 103.046 121.797  1.00  0.00     0.251 A 
ATOM     12  N   UNL     1     105.424 103.445 122.612  1.00  0.00    -0.216 NA
ATOM     13  N   UNL     1     107.691 103.495 121.794  1.00  0.00    -0.216 NA
ATOM     14  C   UNL     1     105.766 104.394 123.508  1.00  0.00     0.043 A 
ATOM     15  C   UNL     1     107.964 104.442 122.716  1.00  0.00     0.043 A 
ATOM     16  C   UNL     1     107.032 104.934 123.607  1.00  0.00     0.047 A 
ATOM     17  C   UNL     1     104.690 104.865 124.428  1.00  0.00     0.067 C 
ATOM     18  C   UNL     1     109.359 104.967 122.745  1.00  0.00     0.067 C 
ENDBRANCH   8  11
ENDBRANCH   3   5
BRANCH   2  19
ATOM     19  C   UNL     1     104.890  96.659 118.882  1.00  0.00     0.109 C 
ATOM     20  C   UNL     1     103.481  96.223 119.309  1.00  0.00     0.036 C 
BRANCH  19  21
ATOM     21  C   UNL     1     105.254  96.208 117.508  1.00  0.00    -0.026 A 
ATOM     22  C   UNL     1     104.929  96.997 116.405  1.00  0.00     0.006 A 
ATOM     23  C   UNL     1     105.920  94.996 117.326  1.00  0.00     0.006 A 
ATOM     24  C   UNL     1     105.269  96.575 115.121  1.00  0.00     0.009 A 
ATOM     25  C   UNL     1     106.260  94.573 116.041  1.00  0.00     0.009 A 
ATOM     26  C   UNL     1     105.934  95.363 114.938  1.00  0.00    -0.018 A 
BRANCH  26  27
ATOM     27  C   UNL     1     106.288  94.925 113.605  1.00  0.00    -0.018 A 
ATOM     28  C   UNL     1     107.254  93.933 113.430  1.00  0.00     0.009 A 
ATOM     29  C   UNL     1     105.664  95.494 112.495  1.00  0.00     0.009 A 
ATOM     30  C   UNL     1     107.594  93.511 112.145  1.00  0.00     0.001 A 
ATOM     31  C   UNL     1     106.004  95.071 111.210  1.00  0.00     0.001 A 
ATOM     32  C   UNL     1     106.970  94.081 111.035  1.00  0.00     0.000 A 
ENDBRANCH  26  27
ENDBRANCH  19  21
ENDBRANCH   2  19
TORSDOF 5
ENDMDL
MODEL 15
REMARK VINA RESULT:      -7.3      5.506      6.650
REMARK SMILES Cc1cc(C)nc(-n2nc(C(=O)N[C@@H](C)c3ccc(-c4ccccc4)cc3)cc2C)n1
REMARK SMILES IDX 12 1 13 2 11 3 10 5 9 6 28 7 8 8 29 9 30 10 7 11 31 12 6 13
REMARK SMILES IDX 2 14 4 15 3 16 1 17 5 18 14 19 15 20 16 21 17 22 27 23 18 24
REMARK SMILES IDX 26 25 19 26 20 27 21 28 25 29 22 30 24 31 23 32
REMARK H PARENT 13 4
ROOT
ATOM      1  O   UNL     1     103.478  96.185 119.052  1.00  0.00    -0.267 OA
ATOM      2  N   UNL     1     105.155  95.042 120.173  1.00  0.00    -0.344 N 
ATOM      3  C   UNL     1     104.394  96.155 119.870  1.00  0.00     0.272 C 
ATOM      4  H   UNL     1     105.927  95.128 120.828  1.00  0.00     0.164 HD
ENDROOT
BRANCH   3   5
ATOM      5  C   UNL     1     104.760  97.399 120.595  1.00  0.00     0.151 A 
ATOM      6  N   UNL     1     105.326  98.412 119.932  1.00  0.00    -0.160 NA
ATOM      7  C   UNL     1     104.584  97.676 121.963  1.00  0.00     0.059 A 
ATOM      8  N   UNL     1     105.509  99.338 120.889  1.00  0.00    -0.202 N 
ATOM      9  C   UNL     1     105.081  98.946 122.124  1.00  0.00     0.045 A 
ATOM     10  C   UNL     1     105.180  99.794 123.327  1.00  0.00     0.067 C 
BRANCH   8  11
ATOM     11  C   UNL     1     106.092 100.562 120.565  1.00  0.00     0.251 A 
ATOM     12  N   UNL     1     107.438 100.610 120.576  1.00  0.00    -0.216 NA
ATOM     13  N   UNL     1     105.249 101.572 120.276  1.00  0.00    -0.216 NA
ATOM     14  C   UNL     1     107.968 101.810 120.259  1.00  0.00     0.043 A 
ATOM     15  C   UNL     1     105.846 102.743 119.968  1.00  0.00     0.043 A 
ATOM     16  C   UNL     1     107.214 102.922 119.943  1.00  0.00     0.047 A 
ATOM     17  C   UNL     1     109.457 101.906 120.262  1.00  0.00     0.067 C 
ATOM     18  C   UNL     1     104.948 103.888 119.643  1.00  0.00     0.067 C 
ENDBRANCH   8  11
ENDBRANCH   3   5
BRANCH   2  19
ATOM     19  C   UNL     1     104.936  93.757 119.530  1.00  0.00     0.109 C 
ATOM     20  C   UNL     1     103.504  93.277 119.809  1.00  0.00     0.036 C 
BRANCH  19  21
ATOM     21  C   UNL     1     105.273  93.790 118.077  1.00  0.00    -0.026 A 
ATOM     22  C   UNL     1     104.287  93.528 117.127  1.00  0.00     0.006 A 
ATOM     23  C   UNL     1     106.574  94.084 117.670  1.00  0.00     0.006 A 
ATOM     24  C   UNL     1     104.602  93.558 115.769  1.00  0.00     0.009 A 
ATOM     25  C   UNL     1     106.890  94.115 116.312  1.00  0.00     0.009 A 
ATOM     26  C   UNL     1     105.903  93.851 115.361  1.00  0.00    -0.018 A 
BRANCH  26  27
ATOM     27  C   UNL     1     106.230  93.884 113.952  1.00  0.00    -0.018 A 
ATOM     28  C   UNL     1     107.508  93.523 113.523  1.00  0.00     0.009 A 
ATOM     29  C   UNL     1     105.268  94.276 113.022  1.00  0.00     0.009 A 
ATOM     30  C   UNL     1     107.823  93.554 112.165  1.00  0.00     0.001 A 
ATOM     31  C   UNL     1     105.582  94.307 111.663  1.00  0.00     0.001 A 
ATOM     32  C   UNL     1     106.860  93.947 111.235  1.00  0.00     0.000 A 
ENDBRANCH  26  27
ENDBRANCH  19  21
ENDBRANCH   2  19
TORSDOF 5
ENDMDL
