MODEL 1
REMARK VINA RESULT:      -8.5      0.000      0.000
REMARK SMILES O=c1ccc(-c2cnc3c(c2)C(=C2ONC=C2c2cccc(F)c2F)C=N3)c[nH]1
REMARK SMILES IDX 14 1 27 2 15 3 8 4 12 5 10 6 13 7 17 8 9 9 11 10 6 11 26 12
REMARK SMILES IDX 16 13 7 14 18 16 24 17 22 18 19 19 21 20 20 21 25 22 23 23
REMARK SMILES IDX 5 24 28 25 4 26 29 27 3 28 2 29 1 30
REMARK H PARENT 15 15 29 31
ROOT
ATOM      1  O   UNL     1     101.827  92.015 115.677  1.00  0.00    -0.381 OA
ATOM      2  N   UNL     1     104.998  93.343 118.900  1.00  0.00    -0.236 NA
ATOM      3  N   UNL     1     100.542  91.485 115.754  1.00  0.00    -0.229 N 
ATOM      4  N   UNL     1     106.623  94.061 117.259  1.00  0.00    -0.236 NA
ATOM      5  C   UNL     1     103.368  92.641 117.400  1.00  0.00     0.050 C 
ATOM      6  C   UNL     1     104.479  93.131 116.614  1.00  0.00     0.032 A 
ATOM      7  C   UNL     1     102.190  92.132 117.029  1.00  0.00     0.174 C 
ATOM      8  C   UNL     1     101.104  91.653 117.877  1.00  0.00     0.050 C 
ATOM      9  C   UNL     1     105.424  93.537 117.560  1.00  0.00     0.159 A 
ATOM     10  C   UNL     1     104.751  93.257 115.270  1.00  0.00     0.023 A 
ATOM     11  C   UNL     1     105.985  93.797 114.917  1.00  0.00     0.002 A 
ATOM     12  C   UNL     1     103.805  92.823 118.804  1.00  0.00     0.126 C 
ATOM     13  C   UNL     1     100.137  91.284 117.029  1.00  0.00     0.133 C 
ATOM     14  C   UNL     1     106.871  94.178 115.930  1.00  0.00     0.122 A 
ATOM     15  H   UNL     1     100.017  91.250 114.925  1.00  0.00     0.208 HD
ENDROOT
BRANCH   8  16
ATOM     16  C   UNL     1     101.011  91.553 119.333  1.00  0.00     0.026 A 
ATOM     17  C   UNL     1     100.678  92.674 120.095  1.00  0.00     0.166 A 
ATOM     18  C   UNL     1     100.590  92.571 121.483  1.00  0.00     0.159 A 
ATOM     19  C   UNL     1     101.258  90.332 119.960  1.00  0.00     0.012 A 
ATOM     20  C   UNL     1     100.836  91.350 122.110  1.00  0.00     0.042 A 
ATOM     21  C   UNL     1     101.169  90.230 121.349  1.00  0.00     0.004 A 
ATOM     22  F   UNL     1     100.439  93.854 119.506  1.00  0.00    -0.203 F 
ATOM     23  F   UNL     1     100.271  93.648 122.214  1.00  0.00    -0.204 F 
ENDBRANCH   8  16
BRANCH  11  24
ATOM     24  C   UNL     1     106.354  93.969 113.499  1.00  0.00    -0.000 A 
ATOM     25  C   UNL     1     107.538  93.498 113.068  1.00  0.00     0.094 A 
ATOM     26  C   UNL     1     105.498  94.640 112.532  1.00  0.00     0.016 A 
ATOM     27  N   UNL     1     107.933  93.637 111.760  1.00  0.00    -0.328 N 
ATOM     28  C   UNL     1     105.857  94.789 111.250  1.00  0.00     0.072 A 
ATOM     29  C   UNL     1     107.170  94.260 110.789  1.00  0.00     0.247 A 
ATOM     30  O   UNL     1     107.516  94.390 109.617  1.00  0.00    -0.270 OA
ATOM     31  H   UNL     1     108.842  93.261 111.502  1.00  0.00     0.169 HD
ENDBRANCH  11  24
TORSDOF 2
ENDMDL
MODEL 2
REMARK VINA RESULT:      -8.1      3.504      8.575
REMARK SMILES O=c1ccc(-c2cnc3c(c2)C(=C2ONC=C2c2cccc(F)c2F)C=N3)c[nH]1
REMARK SMILES IDX 14 1 27 2 15 3 8 4 12 5 10 6 13 7 17 8 9 9 11 10 6 11 26 12
REMARK SMILES IDX 16 13 7 14 18 16 24 17 22 18 19 19 21 20 20 21 25 22 23 23
REMARK SMILES IDX 5 24 28 25 4 26 29 27 3 28 2 29 1 30
REMARK H PARENT 15 15 29 31
ROOT
ATOM      1  O   UNL     1     101.972  93.713 115.081  1.00  0.00    -0.381 OA
ATOM      2  N   UNL     1     106.410  94.512 116.452  1.00  0.00    -0.236 NA
ATOM      3  N   UNL     1     101.320  93.773 113.853  1.00  0.00    -0.229 N 
ATOM      4  N   UNL     1     105.978  93.959 118.767  1.00  0.00    -0.236 NA
ATOM      5  C   UNL     1     104.251  94.163 115.668  1.00  0.00     0.050 C 
ATOM      6  C   UNL     1     104.232  93.881 117.087  1.00  0.00     0.032 A 
ATOM      7  C   UNL     1     103.278  94.114 114.753  1.00  0.00     0.174 C 
ATOM      8  C   UNL     1     103.362  94.412 113.327  1.00  0.00     0.050 C 
ATOM      9  C   UNL     1     105.547  94.105 117.504  1.00  0.00     0.159 A 
ATOM     10  C   UNL     1     103.279  93.482 117.996  1.00  0.00     0.023 A 
ATOM     11  C   UNL     1     103.688  93.318 119.318  1.00  0.00     0.002 A 
ATOM     12  C   UNL     1     105.654  94.544 115.389  1.00  0.00     0.126 C 
ATOM     13  C   UNL     1     102.135  94.175 112.850  1.00  0.00     0.133 C 
ATOM     14  C   UNL     1     105.024  93.564 119.647  1.00  0.00     0.122 A 
ATOM     15  H   UNL     1     100.335  93.571 113.767  1.00  0.00     0.208 HD
ENDROOT
BRANCH   8  16
ATOM     16  C   UNL     1     104.488  94.882 112.521  1.00  0.00     0.026 A 
ATOM     17  C   UNL     1     105.396  93.968 111.985  1.00  0.00     0.166 A 
ATOM     18  C   UNL     1     106.468  94.421 111.216  1.00  0.00     0.159 A 
ATOM     19  C   UNL     1     104.652  96.247 112.289  1.00  0.00     0.012 A 
ATOM     20  C   UNL     1     106.632  95.786 110.983  1.00  0.00     0.042 A 
ATOM     21  C   UNL     1     105.724  96.699 111.519  1.00  0.00     0.004 A 
ATOM     22  F   UNL     1     105.252  92.653 112.200  1.00  0.00    -0.203 F 
ATOM     23  F   UNL     1     107.341  93.544 110.701  1.00  0.00    -0.204 F 
ENDBRANCH   8  16
BRANCH  11  24
ATOM     24  C   UNL     1     102.729  92.890 120.354  1.00  0.00    -0.000 A 
ATOM     25  C   UNL     1     102.603  93.626 121.474  1.00  0.00     0.094 A 
ATOM     26  C   UNL     1     101.912  91.692 120.233  1.00  0.00     0.016 A 
ATOM     27  N   UNL     1     101.730  93.268 122.473  1.00  0.00    -0.328 N 
ATOM     28  C   UNL     1     101.052  91.320 121.191  1.00  0.00     0.072 A 
ATOM     29  C   UNL     1     100.922  92.146 122.423  1.00  0.00     0.247 A 
ATOM     30  O   UNL     1     100.139  91.819 123.312  1.00  0.00    -0.270 OA
ATOM     31  H   UNL     1     101.686  93.867 123.293  1.00  0.00     0.169 HD
ENDBRANCH  11  24
TORSDOF 2
ENDMDL
MODEL 3
REMARK VINA RESULT:      -8.0     13.301     16.737
REMARK SMILES O=c1ccc(-c2cnc3c(c2)C(=C2ONC=C2c2cccc(F)c2F)C=N3)c[nH]1
REMARK SMILES IDX 14 1 27 2 15 3 8 4 12 5 10 6 13 7 17 8 9 9 11 10 6 11 26 12
REMARK SMILES IDX 16 13 7 14 18 16 24 17 22 18 19 19 21 20 20 21 25 22 23 23
REMARK SMILES IDX 5 24 28 25 4 26 29 27 3 28 2 29 1 30
REMARK H PARENT 15 15 29 31
ROOT
ATOM      1  O   UNL     1     117.095  99.200 122.158  1.00  0.00    -0.381 OA
ATOM      2  N   UNL     1     117.145  94.515 121.655  1.00  0.00    -0.236 NA
ATOM      3  N   UNL     1     118.045 100.199 121.960  1.00  0.00    -0.229 N 
ATOM      4  N   UNL     1     114.831  94.246 122.306  1.00  0.00    -0.236 NA
ATOM      5  C   UNL     1     117.240  96.825 121.885  1.00  0.00     0.050 C 
ATOM      6  C   UNL     1     115.895  96.423 122.236  1.00  0.00     0.032 A 
ATOM      7  C   UNL     1     117.812  98.032 121.849  1.00  0.00     0.174 C 
ATOM      8  C   UNL     1     119.182  98.373 121.483  1.00  0.00     0.050 C 
ATOM      9  C   UNL     1     115.894  95.034 122.081  1.00  0.00     0.159 A 
ATOM     10  C   UNL     1     114.752  97.072 122.645  1.00  0.00     0.023 A 
ATOM     11  C   UNL     1     113.627  96.288 122.889  1.00  0.00     0.002 A 
ATOM     12  C   UNL     1     117.923  95.556 121.542  1.00  0.00     0.126 C 
ATOM     13  C   UNL     1     119.243  99.706 121.569  1.00  0.00     0.133 C 
ATOM     14  C   UNL     1     113.715  94.905 122.708  1.00  0.00     0.122 A 
ATOM     15  H   UNL     1     117.837 101.169 122.141  1.00  0.00     0.208 HD
ENDROOT
BRANCH   8  16
ATOM     16  C   UNL     1     120.305  97.515 121.107  1.00  0.00     0.026 A 
ATOM     17  C   UNL     1     120.555  97.236 119.762  1.00  0.00     0.166 A 
ATOM     18  C   UNL     1     121.627  96.418 119.409  1.00  0.00     0.159 A 
ATOM     19  C   UNL     1     121.126  96.974 122.096  1.00  0.00     0.012 A 
ATOM     20  C   UNL     1     122.449  95.877 120.398  1.00  0.00     0.042 A 
ATOM     21  C   UNL     1     122.199  96.156 121.741  1.00  0.00     0.004 A 
ATOM     22  F   UNL     1     119.774  97.748 118.801  1.00  0.00    -0.203 F 
ATOM     23  F   UNL     1     121.868  96.150 118.118  1.00  0.00    -0.204 F 
ENDBRANCH   8  16
BRANCH  11  24
ATOM     24  C   UNL     1     112.360  96.905 123.329  1.00  0.00    -0.000 A 
ATOM     25  C   UNL     1     112.072  96.943 124.642  1.00  0.00     0.094 A 
ATOM     26  C   UNL     1     111.391  97.471 122.404  1.00  0.00     0.016 A 
ATOM     27  N   UNL     1     110.904  97.500 125.105  1.00  0.00    -0.328 N 
ATOM     28  C   UNL     1     110.244  98.021 122.826  1.00  0.00     0.072 A 
ATOM     29  C   UNL     1     109.940  98.057 124.283  1.00  0.00     0.247 A 
ATOM     30  O   UNL     1     108.893  98.556 124.688  1.00  0.00    -0.270 OA
ATOM     31  H   UNL     1     110.746  97.492 126.109  1.00  0.00     0.169 HD
ENDBRANCH  11  24
TORSDOF 2
ENDMDL
MODEL 4
REMARK VINA RESULT:      -7.9     12.907     14.873
REMARK SMILES O=c1ccc(-c2cnc3c(c2)C(=C2ONC=C2c2cccc(F)c2F)C=N3)c[nH]1
REMARK SMILES IDX 14 1 27 2 15 3 8 4 12 5 10 6 13 7 17 8 9 9 11 10 6 11 26 12
REMARK SMILES IDX 16 13 7 14 18 16 24 17 22 18 19 19 21 20 20 21 25 22 23 23
REMARK SMILES IDX 5 24 28 25 4 26 29 27 3 28 2 29 1 30
REMARK H PARENT 15 15 29 31
ROOT
ATOM      1  O   UNL     1     116.114  94.505 122.216  1.00  0.00    -0.381 OA
ATOM      2  N   UNL     1     115.908  99.212 122.320  1.00  0.00    -0.236 NA
ATOM      3  N   UNL     1     115.191  93.496 122.477  1.00  0.00    -0.229 N 
ATOM      4  N   UNL     1     118.197  99.501 121.595  1.00  0.00    -0.236 NA
ATOM      5  C   UNL     1     115.900  96.888 122.320  1.00  0.00     0.050 C 
ATOM      6  C   UNL     1     117.222  97.303 121.902  1.00  0.00     0.032 A 
ATOM      7  C   UNL     1     115.376  95.670 122.483  1.00  0.00     0.174 C 
ATOM      8  C   UNL     1     114.027  95.316 122.910  1.00  0.00     0.050 C 
ATOM      9  C   UNL     1     117.171  98.700 121.919  1.00  0.00     0.159 A 
ATOM     10  C   UNL     1     118.383  96.660 121.534  1.00  0.00     0.023 A 
ATOM     11  C   UNL     1     119.471  97.458 121.190  1.00  0.00     0.002 A 
ATOM     12  C   UNL     1     115.174  98.158 122.551  1.00  0.00     0.126 C 
ATOM     13  C   UNL     1     113.991  93.979 122.874  1.00  0.00     0.133 C 
ATOM     14  C   UNL     1     119.332  98.848 121.235  1.00  0.00     0.122 A 
ATOM     15  H   UNL     1     115.440  92.521 122.408  1.00  0.00     0.208 HD
ENDROOT
BRANCH   8  16
ATOM     16  C   UNL     1     112.907  96.164 123.315  1.00  0.00     0.026 A 
ATOM     17  C   UNL     1     111.985  96.609 122.367  1.00  0.00     0.166 A 
ATOM     18  C   UNL     1     110.918  97.417 122.760  1.00  0.00     0.159 A 
ATOM     19  C   UNL     1     112.763  96.528 124.653  1.00  0.00     0.012 A 
ATOM     20  C   UNL     1     110.773  97.781 124.098  1.00  0.00     0.042 A 
ATOM     21  C   UNL     1     111.695  97.336 125.045  1.00  0.00     0.004 A 
ATOM     22  F   UNL     1     112.110  96.267 121.077  1.00  0.00    -0.203 F 
ATOM     23  F   UNL     1     110.032  97.845 121.849  1.00  0.00    -0.204 F 
ENDBRANCH   8  16
BRANCH  11  24
ATOM     24  C   UNL     1     120.752  96.848 120.781  1.00  0.00    -0.000 A 
ATOM     25  C   UNL     1     121.033  96.733 119.471  1.00  0.00     0.094 A 
ATOM     26  C   UNL     1     121.731  96.348 121.733  1.00  0.00     0.016 A 
ATOM     27  N   UNL     1     122.207  96.167 119.036  1.00  0.00    -0.328 N 
ATOM     28  C   UNL     1     122.885  95.792 121.338  1.00  0.00     0.072 A 
ATOM     29  C   UNL     1     123.183  95.674 119.884  1.00  0.00     0.247 A 
ATOM     30  O   UNL     1     124.235  95.166 119.504  1.00  0.00    -0.270 OA
ATOM     31  H   UNL     1     122.356  96.109 118.032  1.00  0.00     0.169 HD
ENDBRANCH  11  24
TORSDOF 2
ENDMDL
MODEL 5
REMARK VINA RESULT:      -7.9      3.771      8.541
REMARK SMILES O=c1ccc(-c2cnc3c(c2)C(=C2ONC=C2c2cccc(F)c2F)C=N3)c[nH]1
REMARK SMILES IDX 14 1 27 2 15 3 8 4 12 5 10 6 13 7 17 8 9 9 11 10 6 11 26 12
REMARK SMILES IDX 16 13 7 14 18 16 24 17 22 18 19 19 21 20 20 21 25 22 23 23
REMARK SMILES IDX 5 24 28 25 4 26 29 27 3 28 2 29 1 30
REMARK H PARENT 15 15 29 31
ROOT
ATOM      1  O   UNL     1     103.136  92.074 116.639  1.00  0.00    -0.381 OA
ATOM      2  N   UNL     1     105.754  95.988 116.828  1.00  0.00    -0.236 NA
ATOM      3  N   UNL     1     102.881  91.134 115.644  1.00  0.00    -0.229 N 
ATOM      4  N   UNL     1     105.223  96.440 119.144  1.00  0.00    -0.236 NA
ATOM      5  C   UNL     1     104.483  94.054 116.616  1.00  0.00     0.050 C 
ATOM      6  C   UNL     1     104.312  94.521 117.975  1.00  0.00     0.032 A 
ATOM      7  C   UNL     1     103.976  92.991 115.985  1.00  0.00     0.174 C 
ATOM      8  C   UNL     1     104.188  92.572 114.604  1.00  0.00     0.050 C 
ATOM      9  C   UNL     1     105.093  95.678 118.046  1.00  0.00     0.159 A 
ATOM     10  C   UNL     1     103.611  94.093 119.079  1.00  0.00     0.023 A 
ATOM     11  C   UNL     1     103.720  94.857 120.239  1.00  0.00     0.002 A 
ATOM     12  C   UNL     1     105.397  95.044 116.001  1.00  0.00     0.126 C 
ATOM     13  C   UNL     1     103.497  91.434 114.476  1.00  0.00     0.133 C 
ATOM     14  C   UNL     1     104.524  96.001 120.222  1.00  0.00     0.122 A 
ATOM     15  H   UNL     1     102.265  90.352 115.801  1.00  0.00     0.208 HD
ENDROOT
BRANCH   8  16
ATOM     16  C   UNL     1     104.957  93.200 113.531  1.00  0.00     0.026 A 
ATOM     17  C   UNL     1     106.339  93.019 113.459  1.00  0.00     0.166 A 
ATOM     18  C   UNL     1     107.067  93.619 112.432  1.00  0.00     0.159 A 
ATOM     19  C   UNL     1     104.305  93.981 112.577  1.00  0.00     0.012 A 
ATOM     20  C   UNL     1     106.415  94.400 111.478  1.00  0.00     0.042 A 
ATOM     21  C   UNL     1     105.035  94.580 111.549  1.00  0.00     0.004 A 
ATOM     22  F   UNL     1     106.979  92.271 114.368  1.00  0.00    -0.203 F 
ATOM     23  F   UNL     1     108.394  93.445 112.363  1.00  0.00    -0.204 F 
ENDBRANCH   8  16
BRANCH  11  24
ATOM     24  C   UNL     1     103.002  94.467 121.468  1.00  0.00    -0.000 A 
ATOM     25  C   UNL     1     103.341  95.043 122.635  1.00  0.00     0.094 A 
ATOM     26  C   UNL     1     101.942  93.470 121.484  1.00  0.00     0.016 A 
ATOM     27  N   UNL     1     102.709  94.711 123.809  1.00  0.00    -0.328 N 
ATOM     28  C   UNL     1     101.308  93.127 122.614  1.00  0.00     0.072 A 
ATOM     29  C   UNL     1     101.693  93.776 123.898  1.00  0.00     0.247 A 
ATOM     30  O   UNL     1     101.124  93.472 124.943  1.00  0.00    -0.270 OA
ATOM     31  H   UNL     1     103.016  95.182 124.656  1.00  0.00     0.169 HD
ENDBRANCH  11  24
TORSDOF 2
ENDMDL
MODEL 6
REMARK VINA RESULT:      -7.7     13.132     15.180
REMARK SMILES O=c1ccc(-c2cnc3c(c2)C(=C2ONC=C2c2cccc(F)c2F)C=N3)c[nH]1
REMARK SMILES IDX 14 1 27 2 15 3 8 4 12 5 10 6 13 7 17 8 9 9 11 10 6 11 26 12
REMARK SMILES IDX 16 13 7 14 18 16 24 17 22 18 19 19 21 20 20 21 25 22 23 23
REMARK SMILES IDX 5 24 28 25 4 26 29 27 3 28 2 29 1 30
REMARK H PARENT 15 15 29 31
ROOT
ATOM      1  O   UNL     1     116.457  96.025 123.916  1.00  0.00    -0.381 OA
ATOM      2  N   UNL     1     115.435  99.433 120.827  1.00  0.00    -0.236 NA
ATOM      3  N   UNL     1     115.746  95.416 124.947  1.00  0.00    -0.229 N 
ATOM      4  N   UNL     1     117.583  99.315 119.721  1.00  0.00    -0.236 NA
ATOM      5  C   UNL     1     115.836  97.778 122.408  1.00  0.00     0.050 C 
ATOM      6  C   UNL     1     117.032  97.887 121.601  1.00  0.00     0.032 A 
ATOM      7  C   UNL     1     115.546  96.982 123.441  1.00  0.00     0.174 C 
ATOM      8  C   UNL     1     114.313  96.921 124.217  1.00  0.00     0.050 C 
ATOM      9  C   UNL     1     116.737  98.890 120.673  1.00  0.00     0.159 A 
ATOM     10  C   UNL     1     118.260  97.264 121.576  1.00  0.00     0.023 A 
ATOM     11  C   UNL     1     119.165  97.678 120.602  1.00  0.00     0.002 A 
ATOM     12  C   UNL     1     114.915  98.786 121.834  1.00  0.00     0.126 C 
ATOM     13  C   UNL     1     114.510  95.941 125.107  1.00  0.00     0.133 C 
ATOM     14  C   UNL     1     118.787  98.689 119.714  1.00  0.00     0.122 A 
ATOM     15  H   UNL     1     116.158  94.693 125.517  1.00  0.00     0.208 HD
ENDROOT
BRANCH   8  16
ATOM     16  C   UNL     1     113.092  97.720 124.122  1.00  0.00     0.026 A 
ATOM     17  C   UNL     1     112.018  97.271 123.351  1.00  0.00     0.166 A 
ATOM     18  C   UNL     1     110.856  98.037 123.264  1.00  0.00     0.159 A 
ATOM     19  C   UNL     1     113.001  98.932 124.805  1.00  0.00     0.012 A 
ATOM     20  C   UNL     1     110.765  99.249 123.946  1.00  0.00     0.042 A 
ATOM     21  C   UNL     1     111.837  99.697 124.718  1.00  0.00     0.004 A 
ATOM     22  F   UNL     1     112.090  96.108 122.689  1.00  0.00    -0.203 F 
ATOM     23  F   UNL     1     109.825  97.607 122.523  1.00  0.00    -0.204 F 
ENDBRANCH   8  16
BRANCH  11  24
ATOM     24  C   UNL     1     120.502  97.060 120.506  1.00  0.00    -0.000 A 
ATOM     25  C   UNL     1     121.021  96.810 119.290  1.00  0.00     0.094 A 
ATOM     26  C   UNL     1     121.291  96.692 121.671  1.00  0.00     0.016 A 
ATOM     27  N   UNL     1     122.258  96.230 119.144  1.00  0.00    -0.328 N 
ATOM     28  C   UNL     1     122.500  96.126 121.559  1.00  0.00     0.072 A 
ATOM     29  C   UNL     1     123.063  95.857 120.206  1.00  0.00     0.247 A 
ATOM     30  O   UNL     1     124.169  95.337 120.085  1.00  0.00    -0.270 OA
ATOM     31  H   UNL     1     122.590  96.065 118.197  1.00  0.00     0.169 HD
ENDBRANCH  11  24
TORSDOF 2
ENDMDL
MODEL 7
REMARK VINA RESULT:      -7.6     13.128     16.343
REMARK SMILES O=c1ccc(-c2cnc3c(c2)C(=C2ONC=C2c2cccc(F)c2F)C=N3)c[nH]1
REMARK SMILES IDX 14 1 27 2 15 3 8 4 12 5 10 6 13 7 17 8 9 9 11 10 6 11 26 12
REMARK SMILES IDX 16 13 7 14 18 16 24 17 22 18 19 19 21 20 20 21 25 22 23 23
REMARK SMILES IDX 5 24 28 25 4 26 29 27 3 28 2 29 1 30
REMARK H PARENT 15 15 29 31
ROOT
ATOM      1  O   UNL     1     115.360  95.214 121.684  1.00  0.00    -0.381 OA
ATOM      2  N   UNL     1     117.785  98.903 123.331  1.00  0.00    -0.236 NA
ATOM      3  N   UNL     1     115.714  94.072 120.970  1.00  0.00    -0.229 N 
ATOM      4  N   UNL     1     115.850  99.945 124.342  1.00  0.00    -0.236 NA
ATOM      5  C   UNL     1     116.689  97.050 122.459  1.00  0.00     0.050 C 
ATOM      6  C   UNL     1     115.689  97.849 123.135  1.00  0.00     0.032 A 
ATOM      7  C   UNL     1     116.585  95.893 121.799  1.00  0.00     0.174 C 
ATOM      8  C   UNL     1     117.638  95.133 121.135  1.00  0.00     0.050 C 
ATOM      9  C   UNL     1     116.399  98.943 123.638  1.00  0.00     0.159 A 
ATOM     10  C   UNL     1     114.334  97.747 123.353  1.00  0.00     0.023 A 
ATOM     11  C   UNL     1     113.727  98.769 124.080  1.00  0.00     0.002 A 
ATOM     12  C   UNL     1     117.949  97.804 122.648  1.00  0.00     0.126 C 
ATOM     13  C   UNL     1     117.031  94.038 120.663  1.00  0.00     0.133 C 
ATOM     14  C   UNL     1     114.514  99.826 124.545  1.00  0.00     0.122 A 
ATOM     15  H   UNL     1     115.026  93.388 120.694  1.00  0.00     0.208 HD
ENDROOT
BRANCH   8  16
ATOM     16  C   UNL     1     119.059  95.431 120.965  1.00  0.00     0.026 A 
ATOM     17  C   UNL     1     119.487  96.222 119.898  1.00  0.00     0.166 A 
ATOM     18  C   UNL     1     120.844  96.503 119.740  1.00  0.00     0.159 A 
ATOM     19  C   UNL     1     119.988  94.922 121.873  1.00  0.00     0.012 A 
ATOM     20  C   UNL     1     121.773  95.995 120.648  1.00  0.00     0.042 A 
ATOM     21  C   UNL     1     121.345  95.205 121.715  1.00  0.00     0.004 A 
ATOM     22  F   UNL     1     118.607  96.717 119.017  1.00  0.00    -0.203 F 
ATOM     23  F   UNL     1     121.256  97.262 118.715  1.00  0.00    -0.204 F 
ENDBRANCH   8  16
BRANCH  11  24
ATOM     24  C   UNL     1     112.278  98.735 124.359  1.00  0.00    -0.000 A 
ATOM     25  C   UNL     1     111.548  99.849 124.164  1.00  0.00     0.094 A 
ATOM     26  C   UNL     1     111.592  97.551 124.851  1.00  0.00     0.016 A 
ATOM     27  N   UNL     1     110.198  99.874 124.414  1.00  0.00    -0.328 N 
ATOM     28  C   UNL     1     110.276  97.547 125.103  1.00  0.00     0.072 A 
ATOM     29  C   UNL     1     109.482  98.786 124.880  1.00  0.00     0.247 A 
ATOM     30  O   UNL     1     108.274  98.800 125.107  1.00  0.00    -0.270 OA
ATOM     31  H   UNL     1     109.707 100.749 124.249  1.00  0.00     0.169 HD
ENDBRANCH  11  24
TORSDOF 2
ENDMDL
MODEL 8
REMARK VINA RESULT:      -7.5      3.345      4.269
REMARK SMILES O=c1ccc(-c2cnc3c(c2)C(=C2ONC=C2c2cccc(F)c2F)C=N3)c[nH]1
REMARK SMILES IDX 14 1 27 2 15 3 8 4 12 5 10 6 13 7 17 8 9 9 11 10 6 11 26 12
REMARK SMILES IDX 16 13 7 14 18 16 24 17 22 18 19 19 21 20 20 21 25 22 23 23
REMARK SMILES IDX 5 24 28 25 4 26 29 27 3 28 2 29 1 30
REMARK H PARENT 15 15 29 31
ROOT
ATOM      1  O   UNL     1     104.348  97.812 116.868  1.00  0.00    -0.381 OA
ATOM      2  N   UNL     1     105.078  93.593 118.838  1.00  0.00    -0.236 NA
ATOM      3  N   UNL     1     103.867  99.027 117.348  1.00  0.00    -0.229 N 
ATOM      4  N   UNL     1     105.949  92.603 116.810  1.00  0.00    -0.236 NA
ATOM      5  C   UNL     1     104.662  95.707 117.968  1.00  0.00     0.050 C 
ATOM      6  C   UNL     1     105.209  94.910 116.891  1.00  0.00     0.032 A 
ATOM      7  C   UNL     1     104.259  96.981 117.997  1.00  0.00     0.174 C 
ATOM      8  C   UNL     1     103.713  97.731 119.123  1.00  0.00     0.050 C 
ATOM      9  C   UNL     1     105.439  93.657 117.466  1.00  0.00     0.159 A 
ATOM     10  C   UNL     1     105.510  95.126 115.565  1.00  0.00     0.023 A 
ATOM     11  C   UNL     1     106.042  94.056 114.850  1.00  0.00     0.002 A 
ATOM     12  C   UNL     1     104.627  94.784 119.125  1.00  0.00     0.126 C 
ATOM     13  C   UNL     1     103.507  98.966 118.651  1.00  0.00     0.133 C 
ATOM     14  C   UNL     1     106.240  92.837 115.505  1.00  0.00     0.122 A 
ATOM     15  H   UNL     1     103.773  99.832 116.747  1.00  0.00     0.208 HD
ENDROOT
BRANCH   8  16
ATOM     16  C   UNL     1     103.414  97.306 120.489  1.00  0.00     0.026 A 
ATOM     17  C   UNL     1     102.232  96.618 120.767  1.00  0.00     0.166 A 
ATOM     18  C   UNL     1     101.952  96.214 122.072  1.00  0.00     0.159 A 
ATOM     19  C   UNL     1     104.313  97.591 121.517  1.00  0.00     0.012 A 
ATOM     20  C   UNL     1     102.851  96.499 123.100  1.00  0.00     0.042 A 
ATOM     21  C   UNL     1     104.032  97.186 122.822  1.00  0.00     0.004 A 
ATOM     22  F   UNL     1     101.358  96.337 119.791  1.00  0.00    -0.203 F 
ATOM     23  F   UNL     1     100.816  95.554 122.340  1.00  0.00    -0.204 F 
ENDBRANCH   8  16
BRANCH  11  24
ATOM     24  C   UNL     1     106.395  94.204 113.425  1.00  0.00    -0.000 A 
ATOM     25  C   UNL     1     107.463  93.542 112.942  1.00  0.00     0.094 A 
ATOM     26  C   UNL     1     105.647  95.048 112.506  1.00  0.00     0.016 A 
ATOM     27  N   UNL     1     107.838  93.651 111.625  1.00  0.00    -0.328 N 
ATOM     28  C   UNL     1     105.990  95.172 111.217  1.00  0.00     0.072 A 
ATOM     29  C   UNL     1     107.173  94.431 110.697  1.00  0.00     0.247 A 
ATOM     30  O   UNL     1     107.502  94.535 109.518  1.00  0.00    -0.270 OA
ATOM     31  H   UNL     1     108.657  93.126 111.327  1.00  0.00     0.169 HD
ENDBRANCH  11  24
TORSDOF 2
ENDMDL
MODEL 9
REMARK VINA RESULT:      -7.5      2.097      2.485
REMARK SMILES O=c1ccc(-c2cnc3c(c2)C(=C2ONC=C2c2cccc(F)c2F)C=N3)c[nH]1
REMARK SMILES IDX 14 1 27 2 15 3 8 4 12 5 10 6 13 7 17 8 9 9 11 10 6 11 26 12
REMARK SMILES IDX 16 13 7 14 18 16 24 17 22 18 19 19 21 20 20 21 25 22 23 23
REMARK SMILES IDX 5 24 28 25 4 26 29 27 3 28 2 29 1 30
REMARK H PARENT 15 15 29 31
ROOT
ATOM      1  O   UNL     1     101.707  95.207 117.138  1.00  0.00    -0.381 OA
ATOM      2  N   UNL     1     105.483  93.664 119.496  1.00  0.00    -0.236 NA
ATOM      3  N   UNL     1     100.390  95.476 117.501  1.00  0.00    -0.229 N 
ATOM      4  N   UNL     1     106.944  93.768 117.571  1.00  0.00    -0.236 NA
ATOM      5  C   UNL     1     103.554  94.401 118.431  1.00  0.00     0.050 C 
ATOM      6  C   UNL     1     104.603  94.382 117.434  1.00  0.00     0.032 A 
ATOM      7  C   UNL     1     102.266  94.744 118.340  1.00  0.00     0.174 C 
ATOM      8  C   UNL     1     101.254  94.741 119.390  1.00  0.00     0.050 C 
ATOM      9  C   UNL     1     105.733  93.935 118.125  1.00  0.00     0.159 A 
ATOM     10  C   UNL     1     104.689  94.686 116.094  1.00  0.00     0.023 A 
ATOM     11  C   UNL     1     105.931  94.526 115.483  1.00  0.00     0.002 A 
ATOM     12  C   UNL     1     104.219  93.935 119.669  1.00  0.00     0.126 C 
ATOM     13  C   UNL     1     100.144  95.204 118.804  1.00  0.00     0.133 C 
ATOM     14  C   UNL     1     107.008  94.073 116.250  1.00  0.00     0.122 A 
ATOM     15  H   UNL     1      99.711  95.797 116.827  1.00  0.00     0.208 HD
ENDROOT
BRANCH   8  16
ATOM     16  C   UNL     1     101.340  94.329 120.790  1.00  0.00     0.026 A 
ATOM     17  C   UNL     1     101.152  92.991 121.141  1.00  0.00     0.166 A 
ATOM     18  C   UNL     1     101.236  92.604 122.478  1.00  0.00     0.159 A 
ATOM     19  C   UNL     1     101.612  95.277 121.776  1.00  0.00     0.012 A 
ATOM     20  C   UNL     1     101.508  93.552 123.464  1.00  0.00     0.042 A 
ATOM     21  C   UNL     1     101.697  94.888 123.113  1.00  0.00     0.004 A 
ATOM     22  F   UNL     1     100.890  92.069 120.205  1.00  0.00    -0.203 F 
ATOM     23  F   UNL     1     101.055  91.320 122.816  1.00  0.00    -0.204 F 
ENDBRANCH   8  16
BRANCH  11  24
ATOM     24  C   UNL     1     106.110  94.832 114.050  1.00  0.00    -0.000 A 
ATOM     25  C   UNL     1     107.037  94.156 113.347  1.00  0.00     0.094 A 
ATOM     26  C   UNL     1     105.334  95.847 113.354  1.00  0.00     0.016 A 
ATOM     27  N   UNL     1     107.248  94.407 112.013  1.00  0.00    -0.328 N 
ATOM     28  C   UNL     1     105.519  96.111 112.053  1.00  0.00     0.072 A 
ATOM     29  C   UNL     1     106.547  95.353 111.288  1.00  0.00     0.247 A 
ATOM     30  O   UNL     1     106.730  95.584 110.095  1.00  0.00    -0.270 OA
ATOM     31  H   UNL     1     107.966  93.862 111.542  1.00  0.00     0.169 HD
ENDBRANCH  11  24
TORSDOF 2
ENDMDL
MODEL 10
REMARK VINA RESULT:      -7.4      4.516      7.419
REMARK SMILES O=c1ccc(-c2cnc3c(c2)C(=C2ONC=C2c2cccc(F)c2F)C=N3)c[nH]1
REMARK SMILES IDX 14 1 27 2 15 3 8 4 12 5 10 6 13 7 17 8 9 9 11 10 6 11 26 12
REMARK SMILES IDX 16 13 7 14 18 16 24 17 22 18 19 19 21 20 20 21 25 22 23 23
REMARK SMILES IDX 5 24 28 25 4 26 29 27 3 28 2 29 1 30
REMARK H PARENT 15 15 29 31
ROOT
ATOM      1  O   UNL     1     107.522  93.463 114.116  1.00  0.00    -0.381 OA
ATOM      2  N   UNL     1     103.808  94.227 116.915  1.00  0.00    -0.236 NA
ATOM      3  N   UNL     1     107.661  93.153 112.766  1.00  0.00    -0.229 N 
ATOM      4  N   UNL     1     105.156  94.675 118.873  1.00  0.00    -0.236 NA
ATOM      5  C   UNL     1     105.563  93.815 115.448  1.00  0.00     0.050 C 
ATOM      6  C   UNL     1     106.153  94.117 116.735  1.00  0.00     0.032 A 
ATOM      7  C   UNL     1     106.127  93.510 114.276  1.00  0.00     0.174 C 
ATOM      8  C   UNL     1     105.472  93.214 113.007  1.00  0.00     0.050 C 
ATOM      9  C   UNL     1     105.060  94.356 117.573  1.00  0.00     0.159 A 
ATOM     10  C   UNL     1     107.435  94.204 117.231  1.00  0.00     0.023 A 
ATOM     11  C   UNL     1     107.575  94.534 118.577  1.00  0.00     0.002 A 
ATOM     12  C   UNL     1     104.104  93.914 115.683  1.00  0.00     0.126 C 
ATOM     13  C   UNL     1     106.470  93.015 112.139  1.00  0.00     0.133 C 
ATOM     14  C   UNL     1     106.427  94.756 119.342  1.00  0.00     0.122 A 
ATOM     15  H   UNL     1     108.568  93.014 112.347  1.00  0.00     0.208 HD
ENDROOT
BRANCH   8  16
ATOM     16  C   UNL     1     104.052  93.122 112.672  1.00  0.00     0.026 A 
ATOM     17  C   UNL     1     103.417  94.174 112.010  1.00  0.00     0.166 A 
ATOM     18  C   UNL     1     102.062  94.080 111.692  1.00  0.00     0.159 A 
ATOM     19  C   UNL     1     103.331  91.978 113.015  1.00  0.00     0.012 A 
ATOM     20  C   UNL     1     101.342  92.936 112.035  1.00  0.00     0.042 A 
ATOM     21  C   UNL     1     101.976  91.885 112.696  1.00  0.00     0.004 A 
ATOM     22  F   UNL     1     104.096  95.279 111.674  1.00  0.00    -0.203 F 
ATOM     23  F   UNL     1     101.452  95.090 111.057  1.00  0.00    -0.204 F 
ENDBRANCH   8  16
BRANCH  11  24
ATOM     24  C   UNL     1     108.914  94.650 119.187  1.00  0.00    -0.000 A 
ATOM     25  C   UNL     1     109.014  94.953 120.494  1.00  0.00     0.094 A 
ATOM     26  C   UNL     1     110.146  94.463 118.436  1.00  0.00     0.016 A 
ATOM     27  N   UNL     1     110.236  95.080 121.109  1.00  0.00    -0.328 N 
ATOM     28  C   UNL     1     111.351  94.580 119.011  1.00  0.00     0.072 A 
ATOM     29  C   UNL     1     111.445  94.914 120.459  1.00  0.00     0.247 A 
ATOM     30  O   UNL     1     112.542  95.026 121.001  1.00  0.00    -0.270 OA
ATOM     31  H   UNL     1     110.240  95.314 122.099  1.00  0.00     0.169 HD
ENDBRANCH  11  24
TORSDOF 2
ENDMDL
MODEL 11
REMARK VINA RESULT:      -7.3     13.387     16.431
REMARK SMILES O=c1ccc(-c2cnc3c(c2)C(=C2ONC=C2c2cccc(F)c2F)C=N3)c[nH]1
REMARK SMILES IDX 14 1 27 2 15 3 8 4 12 5 10 6 13 7 17 8 9 9 11 10 6 11 26 12
REMARK SMILES IDX 16 13 7 14 18 16 24 17 22 18 19 19 21 20 20 21 25 22 23 23
REMARK SMILES IDX 5 24 28 25 4 26 29 27 3 28 2 29 1 30
REMARK H PARENT 15 15 29 31
ROOT
ATOM      1  O   UNL     1     115.887  97.123 121.596  1.00  0.00    -0.381 OA
ATOM      2  N   UNL     1     118.592 100.516 119.758  1.00  0.00    -0.236 NA
ATOM      3  N   UNL     1     116.152  95.859 122.117  1.00  0.00    -0.229 N 
ATOM      4  N   UNL     1     116.743 102.031 119.388  1.00  0.00    -0.236 NA
ATOM      5  C   UNL     1     117.355  98.770 120.663  1.00  0.00     0.050 C 
ATOM      6  C   UNL     1     116.420  99.830 120.353  1.00  0.00     0.032 A 
ATOM      7  C   UNL     1     117.161  97.561 121.198  1.00  0.00     0.174 C 
ATOM      8  C   UNL     1     118.153  96.531 121.487  1.00  0.00     0.050 C 
ATOM      9  C   UNL     1     117.213 100.848 119.816  1.00  0.00     0.159 A 
ATOM     10  C   UNL     1     115.060 100.006 120.474  1.00  0.00     0.023 A 
ATOM     11  C   UNL     1     114.534 101.221 120.041  1.00  0.00     0.002 A 
ATOM     12  C   UNL     1     118.670  99.310 120.250  1.00  0.00     0.126 C 
ATOM     13  C   UNL     1     117.463  95.532 122.050  1.00  0.00     0.133 C 
ATOM     14  C   UNL     1     115.400 102.184 119.516  1.00  0.00     0.122 A 
ATOM     15  H   UNL     1     115.413  95.264 122.460  1.00  0.00     0.208 HD
ENDROOT
BRANCH   8  16
ATOM     16  C   UNL     1     119.594  96.506 121.240  1.00  0.00     0.026 A 
ATOM     17  C   UNL     1     120.081  96.387 119.938  1.00  0.00     0.166 A 
ATOM     18  C   UNL     1     121.456  96.365 119.708  1.00  0.00     0.159 A 
ATOM     19  C   UNL     1     120.482  96.601 122.311  1.00  0.00     0.012 A 
ATOM     20  C   UNL     1     122.345  96.460 120.779  1.00  0.00     0.042 A 
ATOM     21  C   UNL     1     121.858  96.579 122.080  1.00  0.00     0.004 A 
ATOM     22  F   UNL     1     119.240  96.295 118.899  1.00  0.00    -0.203 F 
ATOM     23  F   UNL     1     121.924  96.250 118.458  1.00  0.00    -0.204 F 
ENDBRANCH   8  16
BRANCH  11  24
ATOM     24  C   UNL     1     113.086 101.491 120.137  1.00  0.00    -0.000 A 
ATOM     25  C   UNL     1     112.255 100.490 120.482  1.00  0.00     0.094 A 
ATOM     26  C   UNL     1     112.502 102.795 119.863  1.00  0.00     0.016 A 
ATOM     27  N   UNL     1     110.899 100.686 120.579  1.00  0.00    -0.328 N 
ATOM     28  C   UNL     1     111.183 103.014 119.950  1.00  0.00     0.072 A 
ATOM     29  C   UNL     1     110.277 101.898 120.336  1.00  0.00     0.247 A 
ATOM     30  O   UNL     1     109.065 102.081 120.419  1.00  0.00    -0.270 OA
ATOM     31  H   UNL     1     110.327  99.886 120.841  1.00  0.00     0.169 HD
ENDBRANCH  11  24
TORSDOF 2
ENDMDL
MODEL 12
REMARK VINA RESULT:      -7.3      3.537      4.295
REMARK SMILES O=c1ccc(-c2cnc3c(c2)C(=C2ONC=C2c2cccc(F)c2F)C=N3)c[nH]1
REMARK SMILES IDX 14 1 27 2 15 3 8 4 12 5 10 6 13 7 17 8 9 9 11 10 6 11 26 12
REMARK SMILES IDX 16 13 7 14 18 16 24 17 22 18 19 19 21 20 20 21 25 22 23 23
REMARK SMILES IDX 5 24 28 25 4 26 29 27 3 28 2 29 1 30
REMARK H PARENT 15 15 29 31
ROOT
ATOM      1  O   UNL     1     104.031  97.642 116.705  1.00  0.00    -0.381 OA
ATOM      2  N   UNL     1     104.967  93.498 118.743  1.00  0.00    -0.236 NA
ATOM      3  N   UNL     1     103.460  98.829 117.157  1.00  0.00    -0.229 N 
ATOM      4  N   UNL     1     105.959  92.546 116.753  1.00  0.00    -0.236 NA
ATOM      5  C   UNL     1     104.444  95.573 117.837  1.00  0.00     0.050 C 
ATOM      6  C   UNL     1     105.072  94.802 116.786  1.00  0.00     0.032 A 
ATOM      7  C   UNL     1     103.961  96.818 117.841  1.00  0.00     0.174 C 
ATOM      8  C   UNL     1     103.335  97.543 118.942  1.00  0.00     0.050 C 
ATOM      9  C   UNL     1     105.364  93.572 117.382  1.00  0.00     0.159 A 
ATOM     10  C   UNL     1     105.399  95.024 115.467  1.00  0.00     0.023 A 
ATOM     11  C   UNL     1     106.018  93.983 114.780  1.00  0.00     0.002 A 
ATOM     12  C   UNL     1     104.434  94.660 119.003  1.00  0.00     0.126 C 
ATOM     13  C   UNL     1     103.066  98.758 118.450  1.00  0.00     0.133 C 
ATOM     14  C   UNL     1     106.273  92.786 115.454  1.00  0.00     0.122 A 
ATOM     15  H   UNL     1     103.332  99.621 116.545  1.00  0.00     0.208 HD
ENDROOT
BRANCH   8  16
ATOM     16  C   UNL     1     103.023  97.113 120.304  1.00  0.00     0.026 A 
ATOM     17  C   UNL     1     103.903  97.398 121.349  1.00  0.00     0.166 A 
ATOM     18  C   UNL     1     103.600  96.987 122.646  1.00  0.00     0.159 A 
ATOM     19  C   UNL     1     101.842  96.416 120.557  1.00  0.00     0.012 A 
ATOM     20  C   UNL     1     102.419  96.290 122.900  1.00  0.00     0.042 A 
ATOM     21  C   UNL     1     101.539  96.005 121.856  1.00  0.00     0.004 A 
ATOM     22  F   UNL     1     105.042  98.067 121.121  1.00  0.00    -0.203 F 
ATOM     23  F   UNL     1     104.445  97.260 123.650  1.00  0.00    -0.204 F 
ENDBRANCH   8  16
BRANCH  11  24
ATOM     24  C   UNL     1     106.403  94.140 113.364  1.00  0.00    -0.000 A 
ATOM     25  C   UNL     1     107.479  93.479 112.901  1.00  0.00     0.094 A 
ATOM     26  C   UNL     1     105.677  94.992 112.435  1.00  0.00     0.016 A 
ATOM     27  N   UNL     1     107.884  93.595 111.593  1.00  0.00    -0.328 N 
ATOM     28  C   UNL     1     106.049  95.124 111.154  1.00  0.00     0.072 A 
ATOM     29  C   UNL     1     107.241  94.384 110.656  1.00  0.00     0.247 A 
ATOM     30  O   UNL     1     107.597  94.494 109.485  1.00  0.00    -0.270 OA
ATOM     31  H   UNL     1     108.708  93.070 111.309  1.00  0.00     0.169 HD
ENDBRANCH  11  24
TORSDOF 2
ENDMDL
MODEL 13
REMARK VINA RESULT:      -7.2     13.457     16.695
REMARK SMILES O=c1ccc(-c2cnc3c(c2)C(=C2ONC=C2c2cccc(F)c2F)C=N3)c[nH]1
REMARK SMILES IDX 14 1 27 2 15 3 8 4 12 5 10 6 13 7 17 8 9 9 11 10 6 11 26 12
REMARK SMILES IDX 16 13 7 14 18 16 24 17 22 18 19 19 21 20 20 21 25 22 23 23
REMARK SMILES IDX 5 24 28 25 4 26 29 27 3 28 2 29 1 30
REMARK H PARENT 15 15 29 31
ROOT
ATOM      1  O   UNL     1     115.865  95.446 121.836  1.00  0.00    -0.381 OA
ATOM      2  N   UNL     1     117.879  99.650 122.524  1.00  0.00    -0.236 NA
ATOM      3  N   UNL     1     116.322  94.231 121.331  1.00  0.00    -0.229 N 
ATOM      4  N   UNL     1     115.888 100.644 123.470  1.00  0.00    -0.236 NA
ATOM      5  C   UNL     1     116.985  97.543 122.125  1.00  0.00     0.050 C 
ATOM      6  C   UNL     1     115.932  98.341 122.713  1.00  0.00     0.032 A 
ATOM      7  C   UNL     1     116.995  96.272 121.714  1.00  0.00     0.174 C 
ATOM      8  C   UNL     1     118.097  95.520 121.125  1.00  0.00     0.050 C 
ATOM      9  C   UNL     1     116.521  99.590 122.932  1.00  0.00     0.159 A 
ATOM     10  C   UNL     1     114.616  98.130 123.058  1.00  0.00     0.023 A 
ATOM     11  C   UNL     1     113.924  99.200 123.621  1.00  0.00     0.002 A 
ATOM     12  C   UNL     1     118.145  98.461 122.057  1.00  0.00     0.126 C 
ATOM     13  C   UNL     1     117.612  94.289 120.927  1.00  0.00     0.133 C 
ATOM     14  C   UNL     1     114.592 100.415 123.804  1.00  0.00     0.122 A 
ATOM     15  H   UNL     1     115.715  93.430 121.252  1.00  0.00     0.208 HD
ENDROOT
BRANCH   8  16
ATOM     16  C   UNL     1     119.455  95.940 120.782  1.00  0.00     0.026 A 
ATOM     17  C   UNL     1     120.483  95.826 121.719  1.00  0.00     0.166 A 
ATOM     18  C   UNL     1     121.776  96.227 121.386  1.00  0.00     0.159 A 
ATOM     19  C   UNL     1     119.722  96.456 119.514  1.00  0.00     0.012 A 
ATOM     20  C   UNL     1     122.043  96.743 120.118  1.00  0.00     0.042 A 
ATOM     21  C   UNL     1     121.016  96.857 119.182  1.00  0.00     0.004 A 
ATOM     22  F   UNL     1     120.243  95.332 122.941  1.00  0.00    -0.203 F 
ATOM     23  F   UNL     1     122.764  96.118 122.286  1.00  0.00    -0.204 F 
ENDBRANCH   8  16
BRANCH  11  24
ATOM     24  C   UNL     1     112.511  99.056 124.021  1.00  0.00    -0.000 A 
ATOM     25  C   UNL     1     112.015  97.825 124.239  1.00  0.00     0.094 A 
ATOM     26  C   UNL     1     111.613 100.189 124.182  1.00  0.00     0.016 A 
ATOM     27  N   UNL     1     110.704  97.634 124.606  1.00  0.00    -0.328 N 
ATOM     28  C   UNL     1     110.331 100.033 124.540  1.00  0.00     0.072 A 
ATOM     29  C   UNL     1     109.797  98.664 124.780  1.00  0.00     0.247 A 
ATOM     30  O   UNL     1     108.624  98.503 125.107  1.00  0.00    -0.270 OA
ATOM     31  H   UNL     1     110.393  96.678 124.752  1.00  0.00     0.169 HD
ENDBRANCH  11  24
TORSDOF 2
ENDMDL
MODEL 14
REMARK VINA RESULT:      -7.2      3.633      9.021
REMARK SMILES O=c1ccc(-c2cnc3c(c2)C(=C2ONC=C2c2cccc(F)c2F)C=N3)c[nH]1
REMARK SMILES IDX 14 1 27 2 15 3 8 4 12 5 10 6 13 7 17 8 9 9 11 10 6 11 26 12
REMARK SMILES IDX 16 13 7 14 18 16 24 17 22 18 19 19 21 20 20 21 25 22 23 23
REMARK SMILES IDX 5 24 28 25 4 26 29 27 3 28 2 29 1 30
REMARK H PARENT 15 15 29 31
ROOT
ATOM      1  O   UNL     1     104.464  95.892 117.503  1.00  0.00    -0.381 OA
ATOM      2  N   UNL     1     103.015  92.128 115.067  1.00  0.00    -0.236 NA
ATOM      3  N   UNL     1     105.246  97.000 117.186  1.00  0.00    -0.229 N 
ATOM      4  N   UNL     1     101.754  91.202 116.912  1.00  0.00    -0.236 NA
ATOM      5  C   UNL     1     103.801  94.012 116.175  1.00  0.00     0.050 C 
ATOM      6  C   UNL     1     102.990  93.277 117.121  1.00  0.00     0.032 A 
ATOM      7  C   UNL     1     104.476  95.158 116.305  1.00  0.00     0.174 C 
ATOM      8  C   UNL     1     105.281  95.852 115.306  1.00  0.00     0.050 C 
ATOM      9  C   UNL     1     102.545  92.161 116.406  1.00  0.00     0.159 A 
ATOM     10  C   UNL     1     102.616  93.448 118.435  1.00  0.00     0.023 A 
ATOM     11  C   UNL     1     101.794  92.473 118.996  1.00  0.00     0.002 A 
ATOM     12  C   UNL     1     103.743  93.203 114.937  1.00  0.00     0.126 C 
ATOM     13  C   UNL     1     105.708  96.964 115.915  1.00  0.00     0.133 C 
ATOM     14  C   UNL     1     101.397  91.389 118.208  1.00  0.00     0.122 A 
ATOM     15  H   UNL     1     105.458  97.710 117.870  1.00  0.00     0.208 HD
ENDROOT
BRANCH   8  16
ATOM     16  C   UNL     1     105.610  95.482 113.930  1.00  0.00     0.026 A 
ATOM     17  C   UNL     1     106.684  94.629 113.670  1.00  0.00     0.166 A 
ATOM     18  C   UNL     1     106.993  94.280 112.356  1.00  0.00     0.159 A 
ATOM     19  C   UNL     1     104.848  95.985 112.876  1.00  0.00     0.012 A 
ATOM     20  C   UNL     1     106.231  94.782 111.302  1.00  0.00     0.042 A 
ATOM     21  C   UNL     1     105.158  95.634 111.561  1.00  0.00     0.004 A 
ATOM     22  F   UNL     1     107.426  94.138 114.673  1.00  0.00    -0.203 F 
ATOM     23  F   UNL     1     108.024  93.461 112.106  1.00  0.00    -0.204 F 
ENDBRANCH   8  16
BRANCH  11  24
ATOM     24  C   UNL     1     101.347  92.582 120.398  1.00  0.00    -0.000 A 
ATOM     25  C   UNL     1     101.010  93.790 120.886  1.00  0.00     0.094 A 
ATOM     26  C   UNL     1     101.261  91.440 121.294  1.00  0.00     0.016 A 
ATOM     27  N   UNL     1     100.594  93.948 122.185  1.00  0.00    -0.328 N 
ATOM     28  C   UNL     1     100.858  91.564 122.566  1.00  0.00     0.072 A 
ATOM     29  C   UNL     1     100.486  92.907 123.090  1.00  0.00     0.247 A 
ATOM     30  O   UNL     1     100.116  93.040 124.254  1.00  0.00    -0.270 OA
ATOM     31  H   UNL     1     100.357  94.889 122.491  1.00  0.00     0.169 HD
ENDBRANCH  11  24
TORSDOF 2
ENDMDL
MODEL 15
REMARK VINA RESULT:      -7.1     13.063     15.858
REMARK SMILES O=c1ccc(-c2cnc3c(c2)C(=C2ONC=C2c2cccc(F)c2F)C=N3)c[nH]1
REMARK SMILES IDX 14 1 27 2 15 3 8 4 12 5 10 6 13 7 17 8 9 9 11 10 6 11 26 12
REMARK SMILES IDX 16 13 7 14 18 16 24 17 22 18 19 19 21 20 20 21 25 22 23 23
REMARK SMILES IDX 5 24 28 25 4 26 29 27 3 28 2 29 1 30
REMARK H PARENT 15 15 29 31
ROOT
ATOM      1  O   UNL     1     116.445  99.177 118.926  1.00  0.00    -0.381 OA
ATOM      2  N   UNL     1     116.143  98.031 123.487  1.00  0.00    -0.236 NA
ATOM      3  N   UNL     1     117.355  98.875 117.917  1.00  0.00    -0.229 N 
ATOM      4  N   UNL     1     114.071  99.231 123.831  1.00  0.00    -0.236 NA
ATOM      5  C   UNL     1     116.402  98.547 121.236  1.00  0.00     0.050 C 
ATOM      6  C   UNL     1     115.179  99.184 121.675  1.00  0.00     0.032 A 
ATOM      7  C   UNL     1     117.000  98.529 120.042  1.00  0.00     0.174 C 
ATOM      8  C   UNL     1     118.241  97.863 119.662  1.00  0.00     0.050 C 
ATOM      9  C   UNL     1     115.073  98.843 123.026  1.00  0.00     0.159 A 
ATOM     10  C   UNL     1     114.215  99.970 121.084  1.00  0.00     0.023 A 
ATOM     11  C   UNL     1     113.158 100.392 121.887  1.00  0.00     0.002 A 
ATOM     12  C   UNL     1     116.911  97.862 122.446  1.00  0.00     0.126 C 
ATOM     13  C   UNL     1     118.384  98.114 118.356  1.00  0.00     0.133 C 
ATOM     14  C   UNL     1     113.131 100.004 123.229  1.00  0.00     0.122 A 
ATOM     15  H   UNL     1     117.247  99.238 116.982  1.00  0.00     0.208 HD
ENDROOT
BRANCH   8  16
ATOM     16  C   UNL     1     119.184  97.085 120.464  1.00  0.00     0.026 A 
ATOM     17  C   UNL     1     118.939  95.736 120.723  1.00  0.00     0.166 A 
ATOM     18  C   UNL     1     119.843  94.999 121.489  1.00  0.00     0.159 A 
ATOM     19  C   UNL     1     120.331  97.695 120.971  1.00  0.00     0.012 A 
ATOM     20  C   UNL     1     120.990  95.609 121.995  1.00  0.00     0.042 A 
ATOM     21  C   UNL     1     121.235  96.957 121.736  1.00  0.00     0.004 A 
ATOM     22  F   UNL     1     117.841  95.135 120.244  1.00  0.00    -0.203 F 
ATOM     23  F   UNL     1     119.607  93.703 121.738  1.00  0.00    -0.204 F 
ENDBRANCH   8  16
BRANCH  11  24
ATOM     24  C   UNL     1     112.081 101.235 121.331  1.00  0.00    -0.000 A 
ATOM     25  C   UNL     1     110.815 101.032 121.738  1.00  0.00     0.094 A 
ATOM     26  C   UNL     1     112.320 102.278 120.345  1.00  0.00     0.016 A 
ATOM     27  N   UNL     1     109.775 101.784 121.247  1.00  0.00    -0.328 N 
ATOM     28  C   UNL     1     111.324 103.026 119.849  1.00  0.00     0.072 A 
ATOM     29  C   UNL     1     109.929 102.791 120.311  1.00  0.00     0.247 A 
ATOM     30  O   UNL     1     109.004 103.468 119.867  1.00  0.00    -0.270 OA
ATOM     31  H   UNL     1     108.842 101.577 121.595  1.00  0.00     0.169 HD
ENDBRANCH  11  24
TORSDOF 2
ENDMDL
