MODEL 1
REMARK VINA RESULT:     -11.1      0.000      0.000
REMARK SMILES O=C(NCc1ccccc1)c1ccc(-c2ccc(-c3ccccc3)cc2)[nH]c1=O
REMARK SMILES IDX 29 1 27 2 14 3 11 4 13 5 28 6 12 7 2 9 1 10 3 11 4 13 5 14
REMARK SMILES IDX 6 15 10 16 7 17 9 18 8 19 15 20 16 21 26 22 17 23 25 24
REMARK SMILES IDX 18 25 19 26 20 27 24 28 21 29 23 30 22 31
REMARK H PARENT 27 8 3 12
ROOT
ATOM      1  O   UNL     1     109.625 110.442  76.793  1.00  0.00    -0.269 OA
ATOM      2  N   UNL     1     111.059 111.873  77.888  1.00  0.00    -0.321 N 
ATOM      3  C   UNL     1     111.307 113.070  78.530  1.00  0.00     0.048 A 
ATOM      4  C   UNL     1     108.734 112.515  77.532  1.00  0.00     0.104 A 
ATOM      5  C   UNL     1     110.312 113.962  78.677  1.00  0.00     0.028 A 
ATOM      6  C   UNL     1     109.829 111.510  77.363  1.00  0.00     0.261 A 
ATOM      7  C   UNL     1     108.996 113.671  78.160  1.00  0.00     0.022 A 
ATOM      8  H   UNL     1     111.831 111.218  77.793  1.00  0.00     0.170 HD
ENDROOT
BRANCH   4   9
ATOM      9  C   UNL     1     107.372 112.300  77.038  1.00  0.00     0.257 C 
ATOM     10  O   UNL     1     106.891 113.029  76.171  1.00  0.00    -0.269 OA
ATOM     11  N   UNL     1     106.739 111.230  77.647  1.00  0.00    -0.348 N 
ATOM     12  H   UNL     1     107.221 110.696  78.363  1.00  0.00     0.164 HD
BRANCH  11  13
ATOM     13  C   UNL     1     105.389 110.820  77.331  1.00  0.00     0.152 C 
BRANCH  13  14
ATOM     14  C   UNL     1     104.370 111.553  78.155  1.00  0.00    -0.029 A 
ATOM     15  C   UNL     1     103.624 112.585  77.584  1.00  0.00     0.005 A 
ATOM     16  C   UNL     1     104.169 111.202  79.488  1.00  0.00     0.005 A 
ATOM     17  C   UNL     1     102.679 113.267  78.350  1.00  0.00     0.000 A 
ATOM     18  C   UNL     1     103.222 111.883  80.254  1.00  0.00     0.000 A 
ATOM     19  C   UNL     1     102.477 112.916  79.684  1.00  0.00     0.000 A 
ENDBRANCH  13  14
ENDBRANCH  11  13
ENDBRANCH   4   9
BRANCH   3  20
ATOM     20  C   UNL     1     112.663 113.323  79.051  1.00  0.00    -0.002 A 
ATOM     21  C   UNL     1     113.096 114.632  79.265  1.00  0.00     0.011 A 
ATOM     22  C   UNL     1     113.513 112.252  79.332  1.00  0.00     0.011 A 
ATOM     23  C   UNL     1     114.378 114.871  79.759  1.00  0.00     0.009 A 
ATOM     24  C   UNL     1     114.795 112.492  79.826  1.00  0.00     0.009 A 
ATOM     25  C   UNL     1     115.227 113.801  80.040  1.00  0.00    -0.018 A 
BRANCH  25  26
ATOM     26  C   UNL     1     116.556 114.049  80.555  1.00  0.00    -0.018 A 
ATOM     27  C   UNL     1     116.813 115.203  81.294  1.00  0.00     0.009 A 
ATOM     28  C   UNL     1     117.581 113.133  80.314  1.00  0.00     0.009 A 
ATOM     29  C   UNL     1     118.094 115.443  81.790  1.00  0.00     0.001 A 
ATOM     30  C   UNL     1     118.862 113.373  80.811  1.00  0.00     0.001 A 
ATOM     31  C   UNL     1     119.119 114.528  81.549  1.00  0.00     0.000 A 
ENDBRANCH  25  26
ENDBRANCH   3  20
TORSDOF 5
ENDMDL
MODEL 2
REMARK VINA RESULT:     -11.1      0.016      1.269
REMARK SMILES O=C(NCc1ccccc1)c1ccc(-c2ccc(-c3ccccc3)cc2)[nH]c1=O
REMARK SMILES IDX 29 1 27 2 14 3 11 4 13 5 28 6 12 7 2 9 1 10 3 11 4 13 5 14
REMARK SMILES IDX 6 15 10 16 7 17 9 18 8 19 15 20 16 21 26 22 17 23 25 24
REMARK SMILES IDX 18 25 19 26 20 27 24 28 21 29 23 30 22 31
REMARK H PARENT 27 8 3 12
ROOT
ATOM      1  O   UNL     1     109.621 110.441  76.792  1.00  0.00    -0.269 OA
ATOM      2  N   UNL     1     111.057 111.870  77.890  1.00  0.00    -0.321 N 
ATOM      3  C   UNL     1     111.305 113.064  78.537  1.00  0.00     0.048 A 
ATOM      4  C   UNL     1     108.730 112.511  77.542  1.00  0.00     0.104 A 
ATOM      5  C   UNL     1     110.309 113.955  78.690  1.00  0.00     0.028 A 
ATOM      6  C   UNL     1     109.826 111.508  77.366  1.00  0.00     0.261 A 
ATOM      7  C   UNL     1     108.992 113.664  78.174  1.00  0.00     0.022 A 
ATOM      8  H   UNL     1     111.829 111.216  77.790  1.00  0.00     0.170 HD
ENDROOT
BRANCH   4   9
ATOM      9  C   UNL     1     107.367 112.297  77.051  1.00  0.00     0.257 C 
ATOM     10  O   UNL     1     106.883 113.029  76.187  1.00  0.00    -0.269 OA
ATOM     11  N   UNL     1     106.736 111.225  77.658  1.00  0.00    -0.348 N 
ATOM     12  H   UNL     1     107.220 110.688  78.371  1.00  0.00     0.164 HD
BRANCH  11  13
ATOM     13  C   UNL     1     105.386 110.814  77.342  1.00  0.00     0.152 C 
BRANCH  13  14
ATOM     14  C   UNL     1     104.368 111.550  78.165  1.00  0.00    -0.029 A 
ATOM     15  C   UNL     1     104.164 111.200  79.500  1.00  0.00     0.005 A 
ATOM     16  C   UNL     1     103.627 112.585  77.596  1.00  0.00     0.005 A 
ATOM     17  C   UNL     1     103.218 111.883  80.264  1.00  0.00     0.000 A 
ATOM     18  C   UNL     1     102.681 113.269  78.359  1.00  0.00     0.000 A 
ATOM     19  C   UNL     1     102.477 112.918  79.694  1.00  0.00     0.000 A 
ENDBRANCH  13  14
ENDBRANCH  11  13
ENDBRANCH   4   9
BRANCH   3  20
ATOM     20  C   UNL     1     112.662 113.315  79.055  1.00  0.00    -0.002 A 
ATOM     21  C   UNL     1     113.087 114.623  79.292  1.00  0.00     0.011 A 
ATOM     22  C   UNL     1     113.520 112.246  79.312  1.00  0.00     0.011 A 
ATOM     23  C   UNL     1     114.370 114.861  79.785  1.00  0.00     0.009 A 
ATOM     24  C   UNL     1     114.803 112.484  79.804  1.00  0.00     0.009 A 
ATOM     25  C   UNL     1     115.228 113.791  80.040  1.00  0.00    -0.018 A 
BRANCH  25  26
ATOM     26  C   UNL     1     116.558 114.038  80.554  1.00  0.00    -0.018 A 
ATOM     27  C   UNL     1     117.584 113.130  80.298  1.00  0.00     0.009 A 
ATOM     28  C   UNL     1     116.815 115.185  81.306  1.00  0.00     0.009 A 
ATOM     29  C   UNL     1     118.866 113.366  80.792  1.00  0.00     0.001 A 
ATOM     30  C   UNL     1     118.096 115.423  81.801  1.00  0.00     0.001 A 
ATOM     31  C   UNL     1     119.123 114.513  81.544  1.00  0.00     0.000 A 
ENDBRANCH  25  26
ENDBRANCH   3  20
TORSDOF 5
ENDMDL
MODEL 3
REMARK VINA RESULT:      -9.8      3.141     11.228
REMARK SMILES O=C(NCc1ccccc1)c1ccc(-c2ccc(-c3ccccc3)cc2)[nH]c1=O
REMARK SMILES IDX 29 1 27 2 14 3 11 4 13 5 28 6 12 7 2 9 1 10 3 11 4 13 5 14
REMARK SMILES IDX 6 15 10 16 7 17 9 18 8 19 15 20 16 21 26 22 17 23 25 24
REMARK SMILES IDX 18 25 19 26 20 27 24 28 21 29 23 30 22 31
REMARK H PARENT 27 8 3 12
ROOT
ATOM      1  O   UNL     1     116.445 112.498  77.973  1.00  0.00    -0.269 OA
ATOM      2  N   UNL     1     114.165 112.625  78.280  1.00  0.00    -0.321 N 
ATOM      3  C   UNL     1     113.062 113.194  78.885  1.00  0.00     0.048 A 
ATOM      4  C   UNL     1     115.644 114.129  79.502  1.00  0.00     0.104 A 
ATOM      5  C   UNL     1     113.232 114.196  79.764  1.00  0.00     0.028 A 
ATOM      6  C   UNL     1     115.473 113.015  78.519  1.00  0.00     0.261 A 
ATOM      7  C   UNL     1     114.560 114.668  80.077  1.00  0.00     0.022 A 
ATOM      8  H   UNL     1     114.006 111.870  77.618  1.00  0.00     0.170 HD
ENDROOT
BRANCH   4   9
ATOM      9  C   UNL     1     116.954 114.667  79.876  1.00  0.00     0.257 C 
ATOM     10  O   UNL     1     117.695 115.174  79.033  1.00  0.00    -0.269 OA
ATOM     11  N   UNL     1     117.229 114.532  81.226  1.00  0.00    -0.348 N 
ATOM     12  H   UNL     1     116.553 114.087  81.839  1.00  0.00     0.164 HD
BRANCH  11  13
ATOM     13  C   UNL     1     118.458 114.986  81.837  1.00  0.00     0.152 C 
BRANCH  13  14
ATOM     14  C   UNL     1     119.377 113.844  82.167  1.00  0.00    -0.029 A 
ATOM     15  C   UNL     1     120.161 113.268  81.168  1.00  0.00     0.005 A 
ATOM     16  C   UNL     1     119.446 113.361  83.473  1.00  0.00     0.005 A 
ATOM     17  C   UNL     1     121.013 112.207  81.474  1.00  0.00     0.000 A 
ATOM     18  C   UNL     1     120.299 112.301  83.780  1.00  0.00     0.000 A 
ATOM     19  C   UNL     1     121.082 111.724  82.781  1.00  0.00     0.000 A 
ENDBRANCH  13  14
ENDBRANCH  11  13
ENDBRANCH   4   9
BRANCH   3  20
ATOM     20  C   UNL     1     111.724 112.687  78.529  1.00  0.00    -0.002 A 
ATOM     21  C   UNL     1     111.584 111.736  77.517  1.00  0.00     0.011 A 
ATOM     22  C   UNL     1     110.598 113.156  79.205  1.00  0.00     0.011 A 
ATOM     23  C   UNL     1     110.319 111.254  77.182  1.00  0.00     0.009 A 
ATOM     24  C   UNL     1     109.332 112.675  78.870  1.00  0.00     0.009 A 
ATOM     25  C   UNL     1     109.193 111.724  77.858  1.00  0.00    -0.018 A 
BRANCH  25  26
ATOM     26  C   UNL     1     107.881 111.223  77.512  1.00  0.00    -0.018 A 
ATOM     27  C   UNL     1     106.762 111.642  78.232  1.00  0.00     0.009 A 
ATOM     28  C   UNL     1     107.734 110.320  76.459  1.00  0.00     0.009 A 
ATOM     29  C   UNL     1     105.497 111.158  77.899  1.00  0.00     0.001 A 
ATOM     30  C   UNL     1     106.469 109.836  76.126  1.00  0.00     0.001 A 
ATOM     31  C   UNL     1     105.350 110.255  76.846  1.00  0.00     0.000 A 
ENDBRANCH  25  26
ENDBRANCH   3  20
TORSDOF 5
ENDMDL
MODEL 4
REMARK VINA RESULT:      -9.7      2.974     11.238
REMARK SMILES O=C(NCc1ccccc1)c1ccc(-c2ccc(-c3ccccc3)cc2)[nH]c1=O
REMARK SMILES IDX 29 1 27 2 14 3 11 4 13 5 28 6 12 7 2 9 1 10 3 11 4 13 5 14
REMARK SMILES IDX 6 15 10 16 7 17 9 18 8 19 15 20 16 21 26 22 17 23 25 24
REMARK SMILES IDX 18 25 19 26 20 27 24 28 21 29 23 30 22 31
REMARK H PARENT 27 8 3 12
ROOT
ATOM      1  O   UNL     1     116.182 112.400  78.201  1.00  0.00    -0.269 OA
ATOM      2  N   UNL     1     113.917 112.647  78.540  1.00  0.00    -0.321 N 
ATOM      3  C   UNL     1     112.852 113.299  79.130  1.00  0.00     0.048 A 
ATOM      4  C   UNL     1     115.484 114.153  79.643  1.00  0.00     0.104 A 
ATOM      5  C   UNL     1     113.083 114.343  79.945  1.00  0.00     0.028 A 
ATOM      6  C   UNL     1     115.245 112.992  78.732  1.00  0.00     0.261 A 
ATOM      7  C   UNL     1     114.437 114.773  80.204  1.00  0.00     0.022 A 
ATOM      8  H   UNL     1     113.711 111.861  77.928  1.00  0.00     0.170 HD
ENDROOT
BRANCH   4   9
ATOM      9  C   UNL     1     116.824 114.654  79.960  1.00  0.00     0.257 C 
ATOM     10  O   UNL     1     117.583 115.039  79.070  1.00  0.00    -0.269 OA
ATOM     11  N   UNL     1     117.102 114.632  81.316  1.00  0.00    -0.348 N 
ATOM     12  H   UNL     1     116.410 114.283  81.970  1.00  0.00     0.164 HD
BRANCH  11  13
ATOM     13  C   UNL     1     118.359 115.075  81.877  1.00  0.00     0.152 C 
BRANCH  13  14
ATOM     14  C   UNL     1     119.312 113.935  82.091  1.00  0.00    -0.029 A 
ATOM     15  C   UNL     1     119.380 113.308  83.335  1.00  0.00     0.005 A 
ATOM     16  C   UNL     1     120.128 113.502  81.047  1.00  0.00     0.005 A 
ATOM     17  C   UNL     1     120.266 112.249  83.535  1.00  0.00     0.000 A 
ATOM     18  C   UNL     1     121.013 112.443  81.246  1.00  0.00     0.000 A 
ATOM     19  C   UNL     1     121.082 111.816  82.490  1.00  0.00     0.000 A 
ENDBRANCH  13  14
ENDBRANCH  11  13
ENDBRANCH   4   9
BRANCH   3  20
ATOM     20  C   UNL     1     111.486 112.832  78.830  1.00  0.00    -0.002 A 
ATOM     21  C   UNL     1     110.386 113.598  79.215  1.00  0.00     0.011 A 
ATOM     22  C   UNL     1     111.294 111.624  78.157  1.00  0.00     0.011 A 
ATOM     23  C   UNL     1     109.094 113.158  78.929  1.00  0.00     0.009 A 
ATOM     24  C   UNL     1     110.001 111.183  77.872  1.00  0.00     0.009 A 
ATOM     25  C   UNL     1     108.902 111.950  78.258  1.00  0.00    -0.018 A 
BRANCH  25  26
ATOM     26  C   UNL     1     107.562 111.494  77.959  1.00  0.00    -0.018 A 
ATOM     27  C   UNL     1     107.328 110.706  76.833  1.00  0.00     0.009 A 
ATOM     28  C   UNL     1     106.502 111.844  78.796  1.00  0.00     0.009 A 
ATOM     29  C   UNL     1     106.037 110.266  76.543  1.00  0.00     0.001 A 
ATOM     30  C   UNL     1     105.211 111.405  78.508  1.00  0.00     0.001 A 
ATOM     31  C   UNL     1     104.978 110.616  77.381  1.00  0.00     0.000 A 
ENDBRANCH  25  26
ENDBRANCH   3  20
TORSDOF 5
ENDMDL
MODEL 5
REMARK VINA RESULT:      -9.6      2.681     11.021
REMARK SMILES O=C(NCc1ccccc1)c1ccc(-c2ccc(-c3ccccc3)cc2)[nH]c1=O
REMARK SMILES IDX 29 1 27 2 14 3 11 4 13 5 28 6 12 7 2 9 1 10 3 11 4 13 5 14
REMARK SMILES IDX 6 15 10 16 7 17 9 18 8 19 15 20 16 21 26 22 17 23 25 24
REMARK SMILES IDX 18 25 19 26 20 27 24 28 21 29 23 30 22 31
REMARK H PARENT 27 8 3 12
ROOT
ATOM      1  O   UNL     1     114.925 112.366  79.979  1.00  0.00    -0.269 OA
ATOM      2  N   UNL     1     112.733 112.772  79.396  1.00  0.00    -0.321 N 
ATOM      3  C   UNL     1     111.739 113.635  78.980  1.00  0.00     0.048 A 
ATOM      4  C   UNL     1     114.362 114.585  79.350  1.00  0.00     0.104 A 
ATOM      5  C   UNL     1     112.035 114.926  78.751  1.00  0.00     0.028 A 
ATOM      6  C   UNL     1     114.051 113.145  79.607  1.00  0.00     0.261 A 
ATOM      7  C   UNL     1     113.382 115.406  78.946  1.00  0.00     0.022 A 
ATOM      8  H   UNL     1     112.480 111.801  79.561  1.00  0.00     0.170 HD
ENDROOT
BRANCH   4   9
ATOM      9  C   UNL     1     115.701 115.154  79.523  1.00  0.00     0.257 C 
ATOM     10  O   UNL     1     116.311 115.639  78.569  1.00  0.00    -0.269 OA
ATOM     11  N   UNL     1     116.158 115.074  80.827  1.00  0.00    -0.348 N 
ATOM     12  H   UNL     1     115.581 114.643  81.542  1.00  0.00     0.164 HD
BRANCH  11  13
ATOM     13  C   UNL     1     117.451 115.565  81.248  1.00  0.00     0.152 C 
BRANCH  13  14
ATOM     14  C   UNL     1     118.440 114.452  81.444  1.00  0.00    -0.029 A 
ATOM     15  C   UNL     1     118.680 113.543  80.414  1.00  0.00     0.005 A 
ATOM     16  C   UNL     1     119.119 114.328  82.655  1.00  0.00     0.005 A 
ATOM     17  C   UNL     1     119.597 112.508  80.596  1.00  0.00     0.000 A 
ATOM     18  C   UNL     1     120.038 113.294  82.837  1.00  0.00     0.000 A 
ATOM     19  C   UNL     1     120.277 112.384  81.807  1.00  0.00     0.000 A 
ENDBRANCH  13  14
ENDBRANCH  11  13
ENDBRANCH   4   9
BRANCH   3  20
ATOM     20  C   UNL     1     110.379 113.100  78.785  1.00  0.00    -0.002 A 
ATOM     21  C   UNL     1     110.202 111.796  78.320  1.00  0.00     0.011 A 
ATOM     22  C   UNL     1     109.269 113.896  79.068  1.00  0.00     0.011 A 
ATOM     23  C   UNL     1     108.915 111.289  78.138  1.00  0.00     0.009 A 
ATOM     24  C   UNL     1     107.982 113.389  78.886  1.00  0.00     0.009 A 
ATOM     25  C   UNL     1     107.806 112.086  78.421  1.00  0.00    -0.018 A 
BRANCH  25  26
ATOM     26  C   UNL     1     106.471 111.559  78.234  1.00  0.00    -0.018 A 
ATOM     27  C   UNL     1     105.454 111.907  79.121  1.00  0.00     0.009 A 
ATOM     28  C   UNL     1     106.202 110.701  77.167  1.00  0.00     0.009 A 
ATOM     29  C   UNL     1     104.167 111.399  78.943  1.00  0.00     0.001 A 
ATOM     30  C   UNL     1     104.916 110.193  76.988  1.00  0.00     0.001 A 
ATOM     31  C   UNL     1     103.898 110.542  77.876  1.00  0.00     0.000 A 
ENDBRANCH  25  26
ENDBRANCH   3  20
TORSDOF 5
ENDMDL
MODEL 6
REMARK VINA RESULT:      -9.5      3.174     11.243
REMARK SMILES O=C(NCc1ccccc1)c1ccc(-c2ccc(-c3ccccc3)cc2)[nH]c1=O
REMARK SMILES IDX 29 1 27 2 14 3 11 4 13 5 28 6 12 7 2 9 1 10 3 11 4 13 5 14
REMARK SMILES IDX 6 15 10 16 7 17 9 18 8 19 15 20 16 21 26 22 17 23 25 24
REMARK SMILES IDX 18 25 19 26 20 27 24 28 21 29 23 30 22 31
REMARK H PARENT 27 8 3 12
ROOT
ATOM      1  O   UNL     1     115.104 116.660  78.043  1.00  0.00    -0.269 OA
ATOM      2  N   UNL     1     113.367 115.193  78.418  1.00  0.00    -0.321 N 
ATOM      3  C   UNL     1     112.843 114.086  79.056  1.00  0.00     0.048 A 
ATOM      4  C   UNL     1     115.479 114.908  79.602  1.00  0.00     0.104 A 
ATOM      5  C   UNL     1     113.599 113.410  79.938  1.00  0.00     0.028 A 
ATOM      6  C   UNL     1     114.651 115.674  78.620  1.00  0.00     0.261 A 
ATOM      7  C   UNL     1     114.951 113.837  80.211  1.00  0.00     0.022 A 
ATOM      8  H   UNL     1     112.772 115.685  77.756  1.00  0.00     0.170 HD
ENDROOT
BRANCH   4   9
ATOM      9  C   UNL     1     116.857 115.273  79.937  1.00  0.00     0.257 C 
ATOM     10  O   UNL     1     117.639 115.659  79.067  1.00  0.00    -0.269 OA
ATOM     11  N   UNL     1     117.143 115.128  81.284  1.00  0.00    -0.348 N 
ATOM     12  H   UNL     1     116.429 114.789  81.920  1.00  0.00     0.164 HD
BRANCH  11  13
ATOM     13  C   UNL     1     118.437 115.423  81.859  1.00  0.00     0.152 C 
BRANCH  13  14
ATOM     14  C   UNL     1     119.276 114.188  82.018  1.00  0.00    -0.029 A 
ATOM     15  C   UNL     1     119.919 113.633  80.911  1.00  0.00     0.005 A 
ATOM     16  C   UNL     1     119.415 113.597  83.273  1.00  0.00     0.005 A 
ATOM     17  C   UNL     1     120.698 112.486  81.060  1.00  0.00     0.000 A 
ATOM     18  C   UNL     1     120.195 112.450  83.422  1.00  0.00     0.000 A 
ATOM     19  C   UNL     1     120.837 111.895  82.315  1.00  0.00     0.000 A 
ENDBRANCH  13  14
ENDBRANCH  11  13
ENDBRANCH   4   9
BRANCH   3  20
ATOM     20  C   UNL     1     111.455 113.691  78.753  1.00  0.00    -0.002 A 
ATOM     21  C   UNL     1     111.205 112.649  77.859  1.00  0.00     0.011 A 
ATOM     22  C   UNL     1     110.391 114.356  79.364  1.00  0.00     0.011 A 
ATOM     23  C   UNL     1     109.893 112.273  77.575  1.00  0.00     0.009 A 
ATOM     24  C   UNL     1     109.079 113.980  79.079  1.00  0.00     0.009 A 
ATOM     25  C   UNL     1     108.830 112.939  78.185  1.00  0.00    -0.018 A 
BRANCH  25  26
ATOM     26  C   UNL     1     107.468 112.547  77.892  1.00  0.00    -0.018 A 
ATOM     27  C   UNL     1     106.695 111.925  78.872  1.00  0.00     0.009 A 
ATOM     28  C   UNL     1     106.927 112.791  76.629  1.00  0.00     0.009 A 
ATOM     29  C   UNL     1     105.383 111.547  78.590  1.00  0.00     0.001 A 
ATOM     30  C   UNL     1     105.615 112.414  76.347  1.00  0.00     0.001 A 
ATOM     31  C   UNL     1     104.842 111.791  77.328  1.00  0.00     0.000 A 
ENDBRANCH  25  26
ENDBRANCH   3  20
TORSDOF 5
ENDMDL
MODEL 7
REMARK VINA RESULT:      -9.4      5.097     11.985
REMARK SMILES O=C(NCc1ccccc1)c1ccc(-c2ccc(-c3ccccc3)cc2)[nH]c1=O
REMARK SMILES IDX 29 1 27 2 14 3 11 4 13 5 28 6 12 7 2 9 1 10 3 11 4 13 5 14
REMARK SMILES IDX 6 15 10 16 7 17 9 18 8 19 15 20 16 21 26 22 17 23 25 24
REMARK SMILES IDX 18 25 19 26 20 27 24 28 21 29 23 30 22 31
REMARK H PARENT 27 8 3 12
ROOT
ATOM      1  O   UNL     1     118.032 115.953  82.642  1.00  0.00    -0.269 OA
ATOM      2  N   UNL     1     116.471 115.059  81.202  1.00  0.00    -0.321 N 
ATOM      3  C   UNL     1     116.077 114.080  80.312  1.00  0.00     0.048 A 
ATOM      4  C   UNL     1     118.607 113.932  81.536  1.00  0.00     0.104 A 
ATOM      5  C   UNL     1     116.907 113.058  80.039  1.00  0.00     0.028 A 
ATOM      6  C   UNL     1     117.695 115.074  81.853  1.00  0.00     0.261 A 
ATOM      7  C   UNL     1     118.204 112.991  80.670  1.00  0.00     0.022 A 
ATOM      8  H   UNL     1     115.822 115.819  81.389  1.00  0.00     0.170 HD
ENDROOT
BRANCH   4   9
ATOM      9  C   UNL     1     119.938 113.787  82.131  1.00  0.00     0.257 C 
ATOM     10  O   UNL     1     120.953 114.026  81.476  1.00  0.00    -0.269 OA
ATOM     11  N   UNL     1     119.899 113.367  83.449  1.00  0.00    -0.348 N 
ATOM     12  H   UNL     1     119.006 113.185  83.897  1.00  0.00     0.164 HD
BRANCH  11  13
ATOM     13  C   UNL     1     121.082 113.150  84.250  1.00  0.00     0.152 C 
BRANCH  13  14
ATOM     14  C   UNL     1     120.876 112.076  85.280  1.00  0.00    -0.029 A 
ATOM     15  C   UNL     1     121.082 112.357  86.631  1.00  0.00     0.005 A 
ATOM     16  C   UNL     1     120.477 110.800  84.886  1.00  0.00     0.005 A 
ATOM     17  C   UNL     1     120.891 111.359  87.587  1.00  0.00     0.000 A 
ATOM     18  C   UNL     1     120.284 109.803  85.842  1.00  0.00     0.000 A 
ATOM     19  C   UNL     1     120.492 110.083  87.193  1.00  0.00     0.000 A 
ENDBRANCH  13  14
ENDBRANCH  11  13
ENDBRANCH   4   9
BRANCH   3  20
ATOM     20  C   UNL     1     114.740 114.183  79.698  1.00  0.00    -0.002 A 
ATOM     21  C   UNL     1     114.368 115.349  79.030  1.00  0.00     0.011 A 
ATOM     22  C   UNL     1     113.849 113.113  79.783  1.00  0.00     0.011 A 
ATOM     23  C   UNL     1     113.105 115.447  78.446  1.00  0.00     0.009 A 
ATOM     24  C   UNL     1     112.585 113.211  79.200  1.00  0.00     0.009 A 
ATOM     25  C   UNL     1     112.214 114.377  78.532  1.00  0.00    -0.018 A 
BRANCH  25  26
ATOM     26  C   UNL     1     110.904 114.477  77.925  1.00  0.00    -0.018 A 
ATOM     27  C   UNL     1     110.109 115.597  78.164  1.00  0.00     0.009 A 
ATOM     28  C   UNL     1     110.436 113.454  77.101  1.00  0.00     0.009 A 
ATOM     29  C   UNL     1     108.846 115.695  77.580  1.00  0.00     0.001 A 
ATOM     30  C   UNL     1     109.174 113.550  76.516  1.00  0.00     0.001 A 
ATOM     31  C   UNL     1     108.378 114.671  76.756  1.00  0.00     0.000 A 
ENDBRANCH  25  26
ENDBRANCH   3  20
TORSDOF 5
ENDMDL
MODEL 8
REMARK VINA RESULT:      -9.3      2.764      4.068
REMARK SMILES O=C(NCc1ccccc1)c1ccc(-c2ccc(-c3ccccc3)cc2)[nH]c1=O
REMARK SMILES IDX 29 1 27 2 14 3 11 4 13 5 28 6 12 7 2 9 1 10 3 11 4 13 5 14
REMARK SMILES IDX 6 15 10 16 7 17 9 18 8 19 15 20 16 21 26 22 17 23 25 24
REMARK SMILES IDX 18 25 19 26 20 27 24 28 21 29 23 30 22 31
REMARK H PARENT 27 8 3 12
ROOT
ATOM      1  O   UNL     1     109.001 114.888  77.139  1.00  0.00    -0.269 OA
ATOM      2  N   UNL     1     110.987 114.067  77.969  1.00  0.00    -0.321 N 
ATOM      3  C   UNL     1     111.837 113.011  78.230  1.00  0.00     0.048 A 
ATOM      4  C   UNL     1     109.353 112.545  76.991  1.00  0.00     0.104 A 
ATOM      5  C   UNL     1     111.470 111.764  77.887  1.00  0.00     0.028 A 
ATOM      6  C   UNL     1     109.747 113.938  77.365  1.00  0.00     0.261 A 
ATOM      7  C   UNL     1     110.193 111.534  77.254  1.00  0.00     0.022 A 
ATOM      8  H   UNL     1     111.292 114.999  78.239  1.00  0.00     0.170 HD
ENDROOT
BRANCH   4   9
ATOM      9  C   UNL     1     108.078 112.223  76.346  1.00  0.00     0.257 C 
ATOM     10  O   UNL     1     107.114 112.984  76.435  1.00  0.00    -0.269 OA
ATOM     11  N   UNL     1     108.104 111.016  75.669  1.00  0.00    -0.348 N 
ATOM     12  H   UNL     1     108.950 110.454  75.665  1.00  0.00     0.164 HD
BRANCH  11  13
ATOM     13  C   UNL     1     106.968 110.480  74.954  1.00  0.00     0.152 C 
BRANCH  13  14
ATOM     14  C   UNL     1     107.174 110.508  73.466  1.00  0.00    -0.029 A 
ATOM     15  C   UNL     1     107.609 111.678  72.845  1.00  0.00     0.005 A 
ATOM     16  C   UNL     1     106.933 109.364  72.708  1.00  0.00     0.005 A 
ATOM     17  C   UNL     1     107.800 111.705  71.463  1.00  0.00     0.000 A 
ATOM     18  C   UNL     1     107.125 109.389  71.327  1.00  0.00     0.000 A 
ATOM     19  C   UNL     1     107.559 110.560  70.704  1.00  0.00     0.000 A 
ENDBRANCH  13  14
ENDBRANCH  11  13
ENDBRANCH   4   9
BRANCH   3  20
ATOM     20  C   UNL     1     113.135 113.293  78.870  1.00  0.00    -0.002 A 
ATOM     21  C   UNL     1     113.355 114.525  79.488  1.00  0.00     0.011 A 
ATOM     22  C   UNL     1     114.142 112.328  78.862  1.00  0.00     0.011 A 
ATOM     23  C   UNL     1     114.582 114.792  80.096  1.00  0.00     0.009 A 
ATOM     24  C   UNL     1     115.369 112.595  79.469  1.00  0.00     0.009 A 
ATOM     25  C   UNL     1     115.589 113.827  80.086  1.00  0.00    -0.018 A 
BRANCH  25  26
ATOM     26  C   UNL     1     116.860 114.102  80.718  1.00  0.00    -0.018 A 
ATOM     27  C   UNL     1     116.996 115.207  81.559  1.00  0.00     0.009 A 
ATOM     28  C   UNL     1     117.951 113.264  80.488  1.00  0.00     0.009 A 
ATOM     29  C   UNL     1     118.221 115.473  82.169  1.00  0.00     0.001 A 
ATOM     30  C   UNL     1     119.177 113.530  81.098  1.00  0.00     0.001 A 
ATOM     31  C   UNL     1     119.312 114.635  81.938  1.00  0.00     0.000 A 
ENDBRANCH  25  26
ENDBRANCH   3  20
TORSDOF 5
ENDMDL
MODEL 9
REMARK VINA RESULT:      -9.2      2.586     10.924
REMARK SMILES O=C(NCc1ccccc1)c1ccc(-c2ccc(-c3ccccc3)cc2)[nH]c1=O
REMARK SMILES IDX 29 1 27 2 14 3 11 4 13 5 28 6 12 7 2 9 1 10 3 11 4 13 5 14
REMARK SMILES IDX 6 15 10 16 7 17 9 18 8 19 15 20 16 21 26 22 17 23 25 24
REMARK SMILES IDX 18 25 19 26 20 27 24 28 21 29 23 30 22 31
REMARK H PARENT 27 8 3 12
ROOT
ATOM      1  O   UNL     1     113.384 116.136  78.429  1.00  0.00    -0.269 OA
ATOM      2  N   UNL     1     111.840 114.426  78.422  1.00  0.00    -0.321 N 
ATOM      3  C   UNL     1     111.537 113.079  78.424  1.00  0.00     0.048 A 
ATOM      4  C   UNL     1     114.224 113.915  78.448  1.00  0.00     0.104 A 
ATOM      5  C   UNL     1     112.531 112.175  78.441  1.00  0.00     0.028 A 
ATOM      6  C   UNL     1     113.129 114.934  78.432  1.00  0.00     0.261 A 
ATOM      7  C   UNL     1     113.907 112.612  78.450  1.00  0.00     0.022 A 
ATOM      8  H   UNL     1     111.067 115.086  78.410  1.00  0.00     0.170 HD
ENDROOT
BRANCH   4   9
ATOM      9  C   UNL     1     115.644 114.272  78.458  1.00  0.00     0.257 C 
ATOM     10  O   UNL     1     116.417 113.819  77.613  1.00  0.00    -0.269 OA
ATOM     11  N   UNL     1     115.978 115.133  79.489  1.00  0.00    -0.348 N 
ATOM     12  H   UNL     1     115.266 115.441  80.144  1.00  0.00     0.164 HD
BRANCH  11  13
ATOM     13  C   UNL     1     117.318 115.628  79.710  1.00  0.00     0.152 C 
BRANCH  13  14
ATOM     14  C   UNL     1     118.120 114.709  80.587  1.00  0.00    -0.029 A 
ATOM     15  C   UNL     1     118.708 113.566  80.046  1.00  0.00     0.005 A 
ATOM     16  C   UNL     1     118.276 115.000  81.942  1.00  0.00     0.005 A 
ATOM     17  C   UNL     1     119.452 112.713  80.861  1.00  0.00     0.000 A 
ATOM     18  C   UNL     1     119.021 114.147  82.757  1.00  0.00     0.000 A 
ATOM     19  C   UNL     1     119.609 113.003  82.216  1.00  0.00     0.000 A 
ENDBRANCH  13  14
ENDBRANCH  11  13
ENDBRANCH   4   9
BRANCH   3  20
ATOM     20  C   UNL     1     110.118 112.677  78.423  1.00  0.00    -0.002 A 
ATOM     21  C   UNL     1     109.161 113.494  79.025  1.00  0.00     0.011 A 
ATOM     22  C   UNL     1     109.732 111.481  77.817  1.00  0.00     0.011 A 
ATOM     23  C   UNL     1     107.818 113.116  79.022  1.00  0.00     0.009 A 
ATOM     24  C   UNL     1     108.390 111.102  77.815  1.00  0.00     0.009 A 
ATOM     25  C   UNL     1     107.433 111.919  78.417  1.00  0.00    -0.018 A 
BRANCH  25  26
ATOM     26  C   UNL     1     106.040 111.527  78.412  1.00  0.00    -0.018 A 
ATOM     27  C   UNL     1     105.180 111.997  79.404  1.00  0.00     0.009 A 
ATOM     28  C   UNL     1     105.557 110.680  77.415  1.00  0.00     0.009 A 
ATOM     29  C   UNL     1     103.838 111.620  79.400  1.00  0.00     0.001 A 
ATOM     30  C   UNL     1     104.215 110.303  77.410  1.00  0.00     0.001 A 
ATOM     31  C   UNL     1     103.354 110.773  78.403  1.00  0.00     0.000 A 
ENDBRANCH  25  26
ENDBRANCH   3  20
TORSDOF 5
ENDMDL
MODEL 10
REMARK VINA RESULT:      -9.1      2.909      4.365
REMARK SMILES O=C(NCc1ccccc1)c1ccc(-c2ccc(-c3ccccc3)cc2)[nH]c1=O
REMARK SMILES IDX 29 1 27 2 14 3 11 4 13 5 28 6 12 7 2 9 1 10 3 11 4 13 5 14
REMARK SMILES IDX 6 15 10 16 7 17 9 18 8 19 15 20 16 21 26 22 17 23 25 24
REMARK SMILES IDX 18 25 19 26 20 27 24 28 21 29 23 30 22 31
REMARK H PARENT 27 8 3 12
ROOT
ATOM      1  O   UNL     1     110.151 109.981  76.667  1.00  0.00    -0.269 OA
ATOM      2  N   UNL     1     111.489 111.603  77.610  1.00  0.00    -0.321 N 
ATOM      3  C   UNL     1     111.737 112.924  77.926  1.00  0.00     0.048 A 
ATOM      4  C   UNL     1     109.374 112.222  76.567  1.00  0.00     0.104 A 
ATOM      5  C   UNL     1     110.842 113.867  77.584  1.00  0.00     0.028 A 
ATOM      6  C   UNL     1     110.357 111.160  76.943  1.00  0.00     0.261 A 
ATOM      7  C   UNL     1     109.634 113.499  76.885  1.00  0.00     0.022 A 
ATOM      8  H   UNL     1     112.183 110.911  77.882  1.00  0.00     0.170 HD
ENDROOT
BRANCH   4   9
ATOM      9  C   UNL     1     108.125 111.937  75.857  1.00  0.00     0.257 C 
ATOM     10  O   UNL     1     107.059 112.428  76.230  1.00  0.00    -0.269 OA
ATOM     11  N   UNL     1     108.298 111.087  74.778  1.00  0.00    -0.348 N 
ATOM     12  H   UNL     1     109.221 110.726  74.560  1.00  0.00     0.164 HD
BRANCH  11  13
ATOM     13  C   UNL     1     107.215 110.657  73.923  1.00  0.00     0.152 C 
BRANCH  13  14
ATOM     14  C   UNL     1     107.283 111.293  72.565  1.00  0.00    -0.029 A 
ATOM     15  C   UNL     1     107.052 110.526  71.423  1.00  0.00     0.005 A 
ATOM     16  C   UNL     1     107.577 112.650  72.445  1.00  0.00     0.005 A 
ATOM     17  C   UNL     1     107.116 111.117  70.161  1.00  0.00     0.000 A 
ATOM     18  C   UNL     1     107.641 113.242  71.183  1.00  0.00     0.000 A 
ATOM     19  C   UNL     1     107.410 112.475  70.041  1.00  0.00     0.000 A 
ENDBRANCH  13  14
ENDBRANCH  11  13
ENDBRANCH   4   9
BRANCH   3  20
ATOM     20  C   UNL     1     112.979 113.253  78.649  1.00  0.00    -0.002 A 
ATOM     21  C   UNL     1     114.028 112.334  78.688  1.00  0.00     0.011 A 
ATOM     22  C   UNL     1     113.108 114.485  79.290  1.00  0.00     0.011 A 
ATOM     23  C   UNL     1     115.204 112.646  79.369  1.00  0.00     0.009 A 
ATOM     24  C   UNL     1     114.284 114.797  79.972  1.00  0.00     0.009 A 
ATOM     25  C   UNL     1     115.332 113.878  80.011  1.00  0.00    -0.018 A 
BRANCH  25  26
ATOM     26  C   UNL     1     116.553 114.202  80.716  1.00  0.00    -0.018 A 
ATOM     27  C   UNL     1     117.677 113.389  80.575  1.00  0.00     0.009 A 
ATOM     28  C   UNL     1     116.608 115.330  81.536  1.00  0.00     0.009 A 
ATOM     29  C   UNL     1     118.854 113.701  81.254  1.00  0.00     0.001 A 
ATOM     30  C   UNL     1     117.785 115.642  82.215  1.00  0.00     0.001 A 
ATOM     31  C   UNL     1     118.909 114.828  82.074  1.00  0.00     0.000 A 
ENDBRANCH  25  26
ENDBRANCH   3  20
TORSDOF 5
ENDMDL
MODEL 11
REMARK VINA RESULT:      -9.0      2.762      4.184
REMARK SMILES O=C(NCc1ccccc1)c1ccc(-c2ccc(-c3ccccc3)cc2)[nH]c1=O
REMARK SMILES IDX 29 1 27 2 14 3 11 4 13 5 28 6 12 7 2 9 1 10 3 11 4 13 5 14
REMARK SMILES IDX 6 15 10 16 7 17 9 18 8 19 15 20 16 21 26 22 17 23 25 24
REMARK SMILES IDX 18 25 19 26 20 27 24 28 21 29 23 30 22 31
REMARK H PARENT 27 8 3 12
ROOT
ATOM      1  O   UNL     1     110.112 110.580  76.776  1.00  0.00    -0.269 OA
ATOM      2  N   UNL     1     111.627 112.004  77.769  1.00  0.00    -0.321 N 
ATOM      3  C   UNL     1     111.986 113.263  78.209  1.00  0.00     0.048 A 
ATOM      4  C   UNL     1     109.476 112.857  77.002  1.00  0.00     0.104 A 
ATOM      5  C   UNL     1     111.128 114.287  78.059  1.00  0.00     0.028 A 
ATOM      6  C   UNL     1     110.417 111.706  77.164  1.00  0.00     0.261 A 
ATOM      7  C   UNL     1     109.844 114.071  77.437  1.00  0.00     0.022 A 
ATOM      8  H   UNL     1     112.296 111.249  77.897  1.00  0.00     0.170 HD
ENDROOT
BRANCH   4   9
ATOM      9  C   UNL     1     108.155 112.725  76.383  1.00  0.00     0.257 C 
ATOM     10  O   UNL     1     107.166 113.264  76.881  1.00  0.00    -0.269 OA
ATOM     11  N   UNL     1     108.172 111.956  75.232  1.00  0.00    -0.348 N 
ATOM     12  H   UNL     1     109.042 111.545  74.909  1.00  0.00     0.164 HD
BRANCH  11  13
ATOM     13  C   UNL     1     106.992 111.680  74.443  1.00  0.00     0.152 C 
BRANCH  13  14
ATOM     14  C   UNL     1     107.329 111.399  73.007  1.00  0.00    -0.029 A 
ATOM     15  C   UNL     1     107.719 112.442  72.166  1.00  0.00     0.005 A 
ATOM     16  C   UNL     1     107.254 110.098  72.514  1.00  0.00     0.005 A 
ATOM     17  C   UNL     1     108.032 112.182  70.832  1.00  0.00     0.000 A 
ATOM     18  C   UNL     1     107.567 109.837  71.180  1.00  0.00     0.000 A 
ATOM     19  C   UNL     1     107.956 110.879  70.339  1.00  0.00     0.000 A 
ENDBRANCH  13  14
ENDBRANCH  11  13
ENDBRANCH   4   9
BRANCH   3  20
ATOM     20  C   UNL     1     113.304 113.437  78.847  1.00  0.00    -0.002 A 
ATOM     21  C   UNL     1     114.297 112.472  78.671  1.00  0.00     0.011 A 
ATOM     22  C   UNL     1     113.560 114.567  79.624  1.00  0.00     0.011 A 
ATOM     23  C   UNL     1     115.544 112.637  79.272  1.00  0.00     0.009 A 
ATOM     24  C   UNL     1     114.807 114.732  80.225  1.00  0.00     0.009 A 
ATOM     25  C   UNL     1     115.799 113.767  80.049  1.00  0.00    -0.018 A 
BRANCH  25  26
ATOM     26  C   UNL     1     117.095 113.940  80.671  1.00  0.00    -0.018 A 
ATOM     27  C   UNL     1     117.326 115.029  81.510  1.00  0.00     0.009 A 
ATOM     28  C   UNL     1     118.113 113.017  80.431  1.00  0.00     0.009 A 
ATOM     29  C   UNL     1     118.574 115.196  82.109  1.00  0.00     0.001 A 
ATOM     30  C   UNL     1     119.361 113.183  81.030  1.00  0.00     0.001 A 
ATOM     31  C   UNL     1     119.592 114.273  81.869  1.00  0.00     0.000 A 
ENDBRANCH  25  26
ENDBRANCH   3  20
TORSDOF 5
ENDMDL
MODEL 12
REMARK VINA RESULT:      -8.9      2.569     10.949
REMARK SMILES O=C(NCc1ccccc1)c1ccc(-c2ccc(-c3ccccc3)cc2)[nH]c1=O
REMARK SMILES IDX 29 1 27 2 14 3 11 4 13 5 28 6 12 7 2 9 1 10 3 11 4 13 5 14
REMARK SMILES IDX 6 15 10 16 7 17 9 18 8 19 15 20 16 21 26 22 17 23 25 24
REMARK SMILES IDX 18 25 19 26 20 27 24 28 21 29 23 30 22 31
REMARK H PARENT 27 8 3 12
ROOT
ATOM      1  O   UNL     1     114.797 112.392  78.710  1.00  0.00    -0.269 OA
ATOM      2  N   UNL     1     112.538 112.832  78.595  1.00  0.00    -0.321 N 
ATOM      3  C   UNL     1     111.489 113.727  78.516  1.00  0.00     0.048 A 
ATOM      4  C   UNL     1     114.140 114.670  78.592  1.00  0.00     0.104 A 
ATOM      5  C   UNL     1     111.744 115.046  78.472  1.00  0.00     0.028 A 
ATOM      6  C   UNL     1     113.874 113.200  78.639  1.00  0.00     0.261 A 
ATOM      7  C   UNL     1     113.107 115.522  78.514  1.00  0.00     0.022 A 
ATOM      8  H   UNL     1     112.315 111.841  78.626  1.00  0.00     0.170 HD
ENDROOT
BRANCH   4   9
ATOM      9  C   UNL     1     115.490 115.238  78.629  1.00  0.00     0.257 C 
ATOM     10  O   UNL     1     115.684 116.428  78.379  1.00  0.00    -0.269 OA
ATOM     11  N   UNL     1     116.458 114.306  78.961  1.00  0.00    -0.348 N 
ATOM     12  H   UNL     1     116.196 113.342  79.139  1.00  0.00     0.164 HD
BRANCH  11  13
ATOM     13  C   UNL     1     117.865 114.623  79.062  1.00  0.00     0.152 C 
BRANCH  13  14
ATOM     14  C   UNL     1     118.455 114.161  80.363  1.00  0.00    -0.029 A 
ATOM     15  C   UNL     1     119.258 113.022  80.400  1.00  0.00     0.005 A 
ATOM     16  C   UNL     1     118.200 114.873  81.535  1.00  0.00     0.005 A 
ATOM     17  C   UNL     1     119.805 112.592  81.609  1.00  0.00     0.000 A 
ATOM     18  C   UNL     1     118.748 114.444  82.744  1.00  0.00     0.000 A 
ATOM     19  C   UNL     1     119.550 113.304  82.781  1.00  0.00     0.000 A 
ENDBRANCH  13  14
ENDBRANCH  11  13
ENDBRANCH   4   9
BRANCH   3  20
ATOM     20  C   UNL     1     110.114 113.196  78.467  1.00  0.00    -0.002 A 
ATOM     21  C   UNL     1     109.817 111.971  79.064  1.00  0.00     0.011 A 
ATOM     22  C   UNL     1     109.109 113.921  77.825  1.00  0.00     0.011 A 
ATOM     23  C   UNL     1     108.516 111.470  79.021  1.00  0.00     0.009 A 
ATOM     24  C   UNL     1     107.808 113.420  77.780  1.00  0.00     0.009 A 
ATOM     25  C   UNL     1     107.512 112.195  78.378  1.00  0.00    -0.018 A 
BRANCH  25  26
ATOM     26  C   UNL     1     106.162 111.676  78.334  1.00  0.00    -0.018 A 
ATOM     27  C   UNL     1     105.783 110.803  77.316  1.00  0.00     0.009 A 
ATOM     28  C   UNL     1     105.238 112.051  79.311  1.00  0.00     0.009 A 
ATOM     29  C   UNL     1     104.482 110.303  77.273  1.00  0.00     0.001 A 
ATOM     30  C   UNL     1     103.937 111.551  79.268  1.00  0.00     0.001 A 
ATOM     31  C   UNL     1     103.559 110.677  78.249  1.00  0.00     0.000 A 
ENDBRANCH  25  26
ENDBRANCH   3  20
TORSDOF 5
ENDMDL
MODEL 13
REMARK VINA RESULT:      -8.9      2.533      3.785
REMARK SMILES O=C(NCc1ccccc1)c1ccc(-c2ccc(-c3ccccc3)cc2)[nH]c1=O
REMARK SMILES IDX 29 1 27 2 14 3 11 4 13 5 28 6 12 7 2 9 1 10 3 11 4 13 5 14
REMARK SMILES IDX 6 15 10 16 7 17 9 18 8 19 15 20 16 21 26 22 17 23 25 24
REMARK SMILES IDX 18 25 19 26 20 27 24 28 21 29 23 30 22 31
REMARK H PARENT 27 8 3 12
ROOT
ATOM      1  O   UNL     1     110.070 115.772  80.144  1.00  0.00    -0.269 OA
ATOM      2  N   UNL     1     112.152 114.810  79.925  1.00  0.00    -0.321 N 
ATOM      3  C   UNL     1     113.021 113.957  79.274  1.00  0.00     0.048 A 
ATOM      4  C   UNL     1     110.371 114.227  78.366  1.00  0.00     0.104 A 
ATOM      5  C   UNL     1     112.593 113.262  78.206  1.00  0.00     0.028 A 
ATOM      6  C   UNL     1     110.832 115.010  79.554  1.00  0.00     0.261 A 
ATOM      7  C   UNL     1     111.231 113.404  77.748  1.00  0.00     0.022 A 
ATOM      8  H   UNL     1     112.505 115.323  80.729  1.00  0.00     0.170 HD
ENDROOT
BRANCH   4   9
ATOM      9  C   UNL     1     109.008 114.312  77.836  1.00  0.00     0.257 C 
ATOM     10  O   UNL     1     108.480 115.403  77.620  1.00  0.00    -0.269 OA
ATOM     11  N   UNL     1     108.431 113.072  77.626  1.00  0.00    -0.348 N 
ATOM     12  H   UNL     1     108.949 112.227  77.848  1.00  0.00     0.164 HD
BRANCH  11  13
ATOM     13  C   UNL     1     107.092 112.894  77.110  1.00  0.00     0.152 C 
BRANCH  13  14
ATOM     14  C   UNL     1     107.036 111.840  76.041  1.00  0.00    -0.029 A 
ATOM     15  C   UNL     1     106.431 110.611  76.305  1.00  0.00     0.005 A 
ATOM     16  C   UNL     1     107.588 112.091  74.786  1.00  0.00     0.005 A 
ATOM     17  C   UNL     1     106.380 109.632  75.313  1.00  0.00     0.000 A 
ATOM     18  C   UNL     1     107.536 111.113  73.793  1.00  0.00     0.000 A 
ATOM     19  C   UNL     1     106.932 109.883  74.057  1.00  0.00     0.000 A 
ENDBRANCH  13  14
ENDBRANCH  11  13
ENDBRANCH   4   9
BRANCH   3  20
ATOM     20  C   UNL     1     114.405 113.849  79.771  1.00  0.00    -0.002 A 
ATOM     21  C   UNL     1     115.098 112.644  79.650  1.00  0.00     0.011 A 
ATOM     22  C   UNL     1     115.024 114.953  80.359  1.00  0.00     0.011 A 
ATOM     23  C   UNL     1     116.408 112.542  80.117  1.00  0.00     0.009 A 
ATOM     24  C   UNL     1     116.334 114.850  80.827  1.00  0.00     0.009 A 
ATOM     25  C   UNL     1     117.026 113.645  80.706  1.00  0.00    -0.018 A 
BRANCH  25  26
ATOM     26  C   UNL     1     118.386 113.540  81.188  1.00  0.00    -0.018 A 
ATOM     27  C   UNL     1     118.800 114.305  82.278  1.00  0.00     0.009 A 
ATOM     28  C   UNL     1     119.284 112.675  80.563  1.00  0.00     0.009 A 
ATOM     29  C   UNL     1     120.111 114.204  82.743  1.00  0.00     0.001 A 
ATOM     30  C   UNL     1     120.594 112.574  81.028  1.00  0.00     0.001 A 
ATOM     31  C   UNL     1     121.008 113.339  82.118  1.00  0.00     0.000 A 
ENDBRANCH  25  26
ENDBRANCH   3  20
TORSDOF 5
ENDMDL
MODEL 14
REMARK VINA RESULT:      -8.5      4.066     11.573
REMARK SMILES O=C(NCc1ccccc1)c1ccc(-c2ccc(-c3ccccc3)cc2)[nH]c1=O
REMARK SMILES IDX 29 1 27 2 14 3 11 4 13 5 28 6 12 7 2 9 1 10 3 11 4 13 5 14
REMARK SMILES IDX 6 15 10 16 7 17 9 18 8 19 15 20 16 21 26 22 17 23 25 24
REMARK SMILES IDX 18 25 19 26 20 27 24 28 21 29 23 30 22 31
REMARK H PARENT 27 8 3 12
ROOT
ATOM      1  O   UNL     1     116.223 115.810  81.696  1.00  0.00    -0.269 OA
ATOM      2  N   UNL     1     114.720 114.561  80.476  1.00  0.00    -0.321 N 
ATOM      3  C   UNL     1     114.440 113.513  79.621  1.00  0.00     0.048 A 
ATOM      4  C   UNL     1     117.089 113.987  80.444  1.00  0.00     0.104 A 
ATOM      5  C   UNL     1     115.439 112.724  79.190  1.00  0.00     0.028 A 
ATOM      6  C   UNL     1     115.989 114.874  80.935  1.00  0.00     0.261 A 
ATOM      7  C   UNL     1     116.795 112.976  79.615  1.00  0.00     0.022 A 
ATOM      8  H   UNL     1     113.944 115.140  80.786  1.00  0.00     0.170 HD
ENDROOT
BRANCH   4   9
ATOM      9  C   UNL     1     118.491 114.172  80.826  1.00  0.00     0.257 C 
ATOM     10  O   UNL     1     119.228 114.922  80.185  1.00  0.00    -0.269 OA
ATOM     11  N   UNL     1     118.852 113.428  81.936  1.00  0.00    -0.348 N 
ATOM     12  H   UNL     1     118.170 112.828  82.388  1.00  0.00     0.164 HD
BRANCH  11  13
ATOM     13  C   UNL     1     120.182 113.440  82.504  1.00  0.00     0.152 C 
BRANCH  13  14
ATOM     14  C   UNL     1     120.267 112.612  83.754  1.00  0.00    -0.029 A 
ATOM     15  C   UNL     1     119.608 113.026  84.911  1.00  0.00     0.005 A 
ATOM     16  C   UNL     1     121.003 111.428  83.757  1.00  0.00     0.005 A 
ATOM     17  C   UNL     1     119.688 112.258  86.073  1.00  0.00     0.000 A 
ATOM     18  C   UNL     1     121.082 110.658  84.917  1.00  0.00     0.000 A 
ATOM     19  C   UNL     1     120.425 111.073  86.075  1.00  0.00     0.000 A 
ENDBRANCH  13  14
ENDBRANCH  11  13
ENDBRANCH   4   9
BRANCH   3  20
ATOM     20  C   UNL     1     113.039 113.288  79.220  1.00  0.00    -0.002 A 
ATOM     21  C   UNL     1     112.700 112.156  78.477  1.00  0.00     0.011 A 
ATOM     22  C   UNL     1     112.052 114.204  79.584  1.00  0.00     0.011 A 
ATOM     23  C   UNL     1     111.375 111.940  78.100  1.00  0.00     0.009 A 
ATOM     24  C   UNL     1     110.727 113.989  79.206  1.00  0.00     0.009 A 
ATOM     25  C   UNL     1     110.388 112.858  78.464  1.00  0.00    -0.018 A 
BRANCH  25  26
ATOM     26  C   UNL     1     109.013 112.633  78.074  1.00  0.00    -0.018 A 
ATOM     27  C   UNL     1     108.265 111.637  78.700  1.00  0.00     0.009 A 
ATOM     28  C   UNL     1     108.435 113.412  77.072  1.00  0.00     0.009 A 
ATOM     29  C   UNL     1     106.940 111.419  78.325  1.00  0.00     0.001 A 
ATOM     30  C   UNL     1     107.110 113.196  76.696  1.00  0.00     0.001 A 
ATOM     31  C   UNL     1     106.362 112.199  77.323  1.00  0.00     0.000 A 
ENDBRANCH  25  26
ENDBRANCH   3  20
TORSDOF 5
ENDMDL
MODEL 15
REMARK VINA RESULT:      -8.3      1.465      1.800
REMARK SMILES O=C(NCc1ccccc1)c1ccc(-c2ccc(-c3ccccc3)cc2)[nH]c1=O
REMARK SMILES IDX 29 1 27 2 14 3 11 4 13 5 28 6 12 7 2 9 1 10 3 11 4 13 5 14
REMARK SMILES IDX 6 15 10 16 7 17 9 18 8 19 15 20 16 21 26 22 17 23 25 24
REMARK SMILES IDX 18 25 19 26 20 27 24 28 21 29 23 30 22 31
REMARK H PARENT 27 8 3 12
ROOT
ATOM      1  O   UNL     1     110.866 111.755  74.715  1.00  0.00    -0.269 OA
ATOM      2  N   UNL     1     112.024 112.174  76.662  1.00  0.00    -0.321 N 
ATOM      3  C   UNL     1     112.078 112.235  78.040  1.00  0.00     0.048 A 
ATOM      4  C   UNL     1     109.696 111.455  76.759  1.00  0.00     0.104 A 
ATOM      5  C   UNL     1     110.989 111.917  78.762  1.00  0.00     0.028 A 
ATOM      6  C   UNL     1     110.899 111.803  75.942  1.00  0.00     0.261 A 
ATOM      7  C   UNL     1     109.771 111.520  78.096  1.00  0.00     0.022 A 
ATOM      8  H   UNL     1     112.863 112.420  76.143  1.00  0.00     0.170 HD
ENDROOT
BRANCH   4   9
ATOM      9  C   UNL     1     108.422 111.044  76.166  1.00  0.00     0.257 C 
ATOM     10  O   UNL     1     108.392 110.349  75.149  1.00  0.00    -0.269 OA
ATOM     11  N   UNL     1     107.323 111.517  76.862  1.00  0.00    -0.348 N 
ATOM     12  H   UNL     1     107.455 112.095  77.686  1.00  0.00     0.164 HD
BRANCH  11  13
ATOM     13  C   UNL     1     105.958 111.247  76.472  1.00  0.00     0.152 C 
BRANCH  13  14
ATOM     14  C   UNL     1     105.031 111.217  77.654  1.00  0.00    -0.029 A 
ATOM     15  C   UNL     1     105.291 112.020  78.764  1.00  0.00     0.005 A 
ATOM     16  C   UNL     1     103.910 110.389  77.640  1.00  0.00     0.005 A 
ATOM     17  C   UNL     1     104.431 111.992  79.862  1.00  0.00     0.000 A 
ATOM     18  C   UNL     1     103.048 110.362  78.736  1.00  0.00     0.000 A 
ATOM     19  C   UNL     1     103.309 111.164  79.848  1.00  0.00     0.000 A 
ENDBRANCH  13  14
ENDBRANCH  11  13
ENDBRANCH   4   9
BRANCH   3  20
ATOM     20  C   UNL     1     113.346 112.636  78.678  1.00  0.00    -0.002 A 
ATOM     21  C   UNL     1     113.799 111.964  79.813  1.00  0.00     0.011 A 
ATOM     22  C   UNL     1     114.093 113.687  78.144  1.00  0.00     0.011 A 
ATOM     23  C   UNL     1     114.999 112.341  80.415  1.00  0.00     0.009 A 
ATOM     24  C   UNL     1     115.293 114.065  78.747  1.00  0.00     0.009 A 
ATOM     25  C   UNL     1     115.746 113.392  79.882  1.00  0.00    -0.018 A 
BRANCH  25  26
ATOM     26  C   UNL     1     116.992 113.782  80.505  1.00  0.00    -0.018 A 
ATOM     27  C   UNL     1     117.055 114.948  81.268  1.00  0.00     0.009 A 
ATOM     28  C   UNL     1     118.131 112.993  80.343  1.00  0.00     0.009 A 
ATOM     29  C   UNL     1     118.256 115.325  81.868  1.00  0.00     0.001 A 
ATOM     30  C   UNL     1     119.332 113.370  80.943  1.00  0.00     0.001 A 
ATOM     31  C   UNL     1     119.395 114.536  81.706  1.00  0.00     0.000 A 
ENDBRANCH  25  26
ENDBRANCH   3  20
TORSDOF 5
ENDMDL
