MODEL 1
REMARK VINA RESULT:      -8.1      0.000      0.000
REMARK SMILES Cc1ccc(-n2nnc(C(=O)N(C)Cc3ccc4ccccc4c3)c2C)cc1
REMARK SMILES IDX 11 1 10 2 12 3 13 4 14 5 15 6 24 7 16 8 23 9 17 10 18 11
REMARK SMILES IDX 22 12 19 13 21 14 20 15 9 16 8 17 25 18 7 19 6 20 26 21 5 22
REMARK SMILES IDX 4 23 27 24 3 25 28 26 2 27 1 28
REMARK H PARENT
ROOT
ATOM      1  O   UNL     1      98.464 108.135 110.725  1.00  0.00    -0.267 OA
ATOM      2  C   UNL     1      97.305 108.417 110.421  1.00  0.00     0.276 C 
ENDROOT
BRANCH   2   3
ATOM      3  N   UNL     1      96.282 108.801 111.313  1.00  0.00    -0.336 N 
ATOM      4  C   UNL     1      95.892 110.202 111.483  1.00  0.00     0.147 C 
BRANCH   3   5
ATOM      5  C   UNL     1      95.564 107.836 112.105  1.00  0.00     0.155 C 
BRANCH   5   6
ATOM      6  C   UNL     1      96.434 107.173 113.118  1.00  0.00    -0.028 A 
ATOM      7  C   UNL     1      96.581 105.785 113.110  1.00  0.00     0.014 A 
ATOM      8  C   UNL     1      97.099 107.938 114.072  1.00  0.00     0.006 A 
ATOM      9  C   UNL     1      97.398 105.145 114.057  1.00  0.00    -0.018 A 
ATOM     10  C   UNL     1      97.913 107.319 115.020  1.00  0.00     0.009 A 
ATOM     11  C   UNL     1      98.073 105.924 115.027  1.00  0.00    -0.018 A 
ATOM     12  C   UNL     1      97.557 103.751 114.064  1.00  0.00     0.009 A 
ATOM     13  C   UNL     1      98.889 105.284 115.975  1.00  0.00     0.009 A 
ATOM     14  C   UNL     1      98.371 103.131 115.012  1.00  0.00     0.001 A 
ATOM     15  C   UNL     1      99.036 103.897 115.966  1.00  0.00     0.001 A 
ENDBRANCH   5   6
ENDBRANCH   3   5
ENDBRANCH   2   3
BRANCH   2  16
ATOM     16  C   UNL     1      96.975 108.356 108.987  1.00  0.00     0.173 A 
ATOM     17  N   UNL     1      95.991 109.113 108.416  1.00  0.00    -0.124 NA
ATOM     18  C   UNL     1      97.568 107.572 108.031  1.00  0.00     0.075 A 
ATOM     19  N   UNL     1      95.952 108.822 107.120  1.00  0.00    -0.061 NA
ATOM     20  N   UNL     1      96.899 107.898 106.891  1.00  0.00    -0.217 N 
ATOM     21  C   UNL     1      98.663 106.587 108.094  1.00  0.00     0.069 C 
BRANCH  20  22
ATOM     22  C   UNL     1      97.105 107.390 105.612  1.00  0.00     0.067 A 
ATOM     23  C   UNL     1      98.397 107.087 105.181  1.00  0.00     0.029 A 
ATOM     24  C   UNL     1      96.019 107.185 104.760  1.00  0.00     0.029 A 
ATOM     25  C   UNL     1      98.602 106.581 103.897  1.00  0.00     0.005 A 
ATOM     26  C   UNL     1      96.224 106.678 103.478  1.00  0.00     0.005 A 
ATOM     27  C   UNL     1      97.516 106.375 103.046  1.00  0.00    -0.051 A 
ATOM     28  C   UNL     1      97.737 105.834 101.674  1.00  0.00     0.044 C 
ENDBRANCH  20  22
ENDBRANCH   2  16
TORSDOF 5
ENDMDL
MODEL 2
REMARK VINA RESULT:      -7.8      0.751      1.306
REMARK SMILES Cc1ccc(-n2nnc(C(=O)N(C)Cc3ccc4ccccc4c3)c2C)cc1
REMARK SMILES IDX 11 1 10 2 12 3 13 4 14 5 15 6 24 7 16 8 23 9 17 10 18 11
REMARK SMILES IDX 22 12 19 13 21 14 20 15 9 16 8 17 25 18 7 19 6 20 26 21 5 22
REMARK SMILES IDX 4 23 27 24 3 25 28 26 2 27 1 28
REMARK H PARENT
ROOT
ATOM      1  O   UNL     1      99.002 108.418 110.832  1.00  0.00    -0.267 OA
ATOM      2  C   UNL     1      97.796 108.265 110.635  1.00  0.00     0.276 C 
ENDROOT
BRANCH   2   3
ATOM      3  N   UNL     1      96.800 108.157 111.628  1.00  0.00    -0.336 N 
ATOM      4  C   UNL     1      95.456 107.662 111.321  1.00  0.00     0.147 C 
BRANCH   3   5
ATOM      5  C   UNL     1      97.049 108.525 112.998  1.00  0.00     0.155 C 
BRANCH   5   6
ATOM      6  C   UNL     1      97.529 107.375 113.816  1.00  0.00    -0.028 A 
ATOM      7  C   UNL     1      97.174 106.073 113.463  1.00  0.00     0.014 A 
ATOM      8  C   UNL     1      98.329 107.601 114.932  1.00  0.00     0.006 A 
ATOM      9  C   UNL     1      97.618 104.978 114.224  1.00  0.00    -0.018 A 
ATOM     10  C   UNL     1      98.777 106.526 115.699  1.00  0.00     0.009 A 
ATOM     11  C   UNL     1      98.431 105.208 115.359  1.00  0.00    -0.018 A 
ATOM     12  C   UNL     1      97.271 103.661 113.884  1.00  0.00     0.009 A 
ATOM     13  C   UNL     1      98.874 104.114 116.120  1.00  0.00     0.009 A 
ATOM     14  C   UNL     1      97.719 102.586 114.651  1.00  0.00     0.001 A 
ATOM     15  C   UNL     1      98.519 102.812 115.767  1.00  0.00     0.001 A 
ENDBRANCH   5   6
ENDBRANCH   3   5
ENDBRANCH   2   3
BRANCH   2  16
ATOM     16  C   UNL     1      97.369 108.205 109.228  1.00  0.00     0.173 A 
ATOM     17  N   UNL     1      96.330 108.941 108.732  1.00  0.00    -0.124 NA
ATOM     18  C   UNL     1      97.914 107.443 108.226  1.00  0.00     0.075 A 
ATOM     19  N   UNL     1      96.208 108.658 107.440  1.00  0.00    -0.061 NA
ATOM     20  N   UNL     1      97.159 107.760 107.138  1.00  0.00    -0.217 N 
ATOM     21  C   UNL     1      99.034 106.485 108.205  1.00  0.00     0.069 C 
BRANCH  20  22
ATOM     22  C   UNL     1      97.289 107.265 105.844  1.00  0.00     0.067 A 
ATOM     23  C   UNL     1      96.152 106.986 105.085  1.00  0.00     0.029 A 
ATOM     24  C   UNL     1      98.557 107.045 105.306  1.00  0.00     0.029 A 
ATOM     25  C   UNL     1      96.284 106.486 103.789  1.00  0.00     0.005 A 
ATOM     26  C   UNL     1      98.689 106.546 104.011  1.00  0.00     0.005 A 
ATOM     27  C   UNL     1      97.552 106.267 103.251  1.00  0.00    -0.051 A 
ATOM     28  C   UNL     1      97.693 105.732 101.866  1.00  0.00     0.044 C 
ENDBRANCH  20  22
ENDBRANCH   2  16
TORSDOF 5
ENDMDL
MODEL 3
REMARK VINA RESULT:      -7.8     13.952     15.813
REMARK SMILES Cc1ccc(-n2nnc(C(=O)N(C)Cc3ccc4ccccc4c3)c2C)cc1
REMARK SMILES IDX 11 1 10 2 12 3 13 4 14 5 15 6 24 7 16 8 23 9 17 10 18 11
REMARK SMILES IDX 22 12 19 13 21 14 20 15 9 16 8 17 25 18 7 19 6 20 26 21 5 22
REMARK SMILES IDX 4 23 27 24 3 25 28 26 2 27 1 28
REMARK H PARENT
ROOT
ATOM      1  O   UNL     1     103.685  92.589 117.205  1.00  0.00    -0.267 OA
ATOM      2  C   UNL     1     103.591  93.689 116.658  1.00  0.00     0.276 C 
ENDROOT
BRANCH   2   3
ATOM      3  N   UNL     1     104.365  94.830 116.951  1.00  0.00    -0.336 N 
ATOM      4  C   UNL     1     103.753  96.083 117.402  1.00  0.00     0.147 C 
BRANCH   3   5
ATOM      5  C   UNL     1     105.800  94.829 116.824  1.00  0.00     0.155 C 
BRANCH   5   6
ATOM      6  C   UNL     1     106.245  94.544 115.429  1.00  0.00    -0.028 A 
ATOM      7  C   UNL     1     105.921  95.429 114.400  1.00  0.00     0.014 A 
ATOM      8  C   UNL     1     106.983  93.396 115.155  1.00  0.00     0.006 A 
ATOM      9  C   UNL     1     106.333  95.175 113.081  1.00  0.00    -0.018 A 
ATOM     10  C   UNL     1     107.399  93.128 113.851  1.00  0.00     0.009 A 
ATOM     11  C   UNL     1     107.082  94.007 112.802  1.00  0.00    -0.018 A 
ATOM     12  C   UNL     1     106.016  96.053 112.033  1.00  0.00     0.009 A 
ATOM     13  C   UNL     1     107.494  93.753 111.484  1.00  0.00     0.009 A 
ATOM     14  C   UNL     1     106.432  95.786 110.729  1.00  0.00     0.001 A 
ATOM     15  C   UNL     1     107.170  94.638 110.455  1.00  0.00     0.001 A 
ENDBRANCH   5   6
ENDBRANCH   3   5
ENDBRANCH   2   3
BRANCH   2  16
ATOM     16  C   UNL     1     102.581  93.801 115.593  1.00  0.00     0.173 A 
ATOM     17  N   UNL     1     101.377  94.422 115.771  1.00  0.00    -0.124 NA
ATOM     18  C   UNL     1     102.672  93.329 114.309  1.00  0.00     0.075 A 
ATOM     19  N   UNL     1     100.707  94.351 114.625  1.00  0.00    -0.061 NA
ATOM     20  N   UNL     1     101.485  93.695 113.750  1.00  0.00    -0.217 N 
ATOM     21  C   UNL     1     103.731  92.595 113.594  1.00  0.00     0.069 C 
BRANCH  20  22
ATOM     22  C   UNL     1     101.054  93.461 112.448  1.00  0.00     0.067 A 
ATOM     23  C   UNL     1     101.124  94.478 111.495  1.00  0.00     0.029 A 
ATOM     24  C   UNL     1     100.550  92.208 112.095  1.00  0.00     0.029 A 
ATOM     25  C   UNL     1     100.688  94.242 110.191  1.00  0.00     0.005 A 
ATOM     26  C   UNL     1     100.115  91.973 110.792  1.00  0.00     0.005 A 
ATOM     27  C   UNL     1     100.184  92.990 109.838  1.00  0.00    -0.051 A 
ATOM     28  C   UNL     1      99.718  92.740 108.444  1.00  0.00     0.044 C 
ENDBRANCH  20  22
ENDBRANCH   2  16
TORSDOF 5
ENDMDL
MODEL 4
REMARK VINA RESULT:      -7.6      1.281      2.216
REMARK SMILES Cc1ccc(-n2nnc(C(=O)N(C)Cc3ccc4ccccc4c3)c2C)cc1
REMARK SMILES IDX 11 1 10 2 12 3 13 4 14 5 15 6 24 7 16 8 23 9 17 10 18 11
REMARK SMILES IDX 22 12 19 13 21 14 20 15 9 16 8 17 25 18 7 19 6 20 26 21 5 22
REMARK SMILES IDX 4 23 27 24 3 25 28 26 2 27 1 28
REMARK H PARENT
ROOT
ATOM      1  O   UNL     1      98.455 107.044 109.744  1.00  0.00    -0.267 OA
ATOM      2  C   UNL     1      97.435 107.711 109.566  1.00  0.00     0.276 C 
ENDROOT
BRANCH   2   3
ATOM      3  N   UNL     1      96.767 108.482 110.540  1.00  0.00    -0.336 N 
ATOM      4  C   UNL     1      96.967 109.929 110.648  1.00  0.00     0.147 C 
BRANCH   3   5
ATOM      5  C   UNL     1      95.851 107.891 111.481  1.00  0.00     0.155 C 
BRANCH   5   6
ATOM      6  C   UNL     1      96.512 107.540 112.771  1.00  0.00    -0.028 A 
ATOM      7  C   UNL     1      96.659 108.509 113.765  1.00  0.00     0.014 A 
ATOM      8  C   UNL     1      96.982 106.247 112.983  1.00  0.00     0.006 A 
ATOM      9  C   UNL     1      97.279 108.195 114.985  1.00  0.00    -0.018 A 
ATOM     10  C   UNL     1      97.601 105.918 114.190  1.00  0.00     0.009 A 
ATOM     11  C   UNL     1      97.758 106.880 115.201  1.00  0.00    -0.018 A 
ATOM     12  C   UNL     1      97.437 109.156 115.996  1.00  0.00     0.009 A 
ATOM     13  C   UNL     1      98.378 106.566 116.421  1.00  0.00     0.009 A 
ATOM     14  C   UNL     1      98.056 108.828 117.202  1.00  0.00     0.001 A 
ATOM     15  C   UNL     1      98.525 107.535 117.414  1.00  0.00     0.001 A 
ENDBRANCH   5   6
ENDBRANCH   3   5
ENDBRANCH   2   3
BRANCH   2  16
ATOM     16  C   UNL     1      96.881 107.701 108.202  1.00  0.00     0.173 A 
ATOM     17  N   UNL     1      95.649 108.207 107.895  1.00  0.00    -0.124 NA
ATOM     18  C   UNL     1      97.475 107.212 107.067  1.00  0.00     0.075 A 
ATOM     19  N   UNL     1      95.455 108.046 106.591  1.00  0.00    -0.061 NA
ATOM     20  N   UNL     1      96.551 107.449 106.096  1.00  0.00    -0.217 N 
ATOM     21  C   UNL     1      98.780 106.569 106.829  1.00  0.00     0.069 C 
BRANCH  20  22
ATOM     22  C   UNL     1      96.649 107.146 104.741  1.00  0.00     0.067 A 
ATOM     23  C   UNL     1      97.902 106.984 104.151  1.00  0.00     0.029 A 
ATOM     24  C   UNL     1      95.493 107.008 103.973  1.00  0.00     0.029 A 
ATOM     25  C   UNL     1      97.999 106.684 102.792  1.00  0.00     0.005 A 
ATOM     26  C   UNL     1      95.589 106.708 102.615  1.00  0.00     0.005 A 
ATOM     27  C   UNL     1      96.843 106.545 102.023  1.00  0.00    -0.051 A 
ATOM     28  C   UNL     1      96.947 106.225 100.571  1.00  0.00     0.044 C 
ENDBRANCH  20  22
ENDBRANCH   2  16
TORSDOF 5
ENDMDL
MODEL 5
REMARK VINA RESULT:      -7.6     13.078     14.309
REMARK SMILES Cc1ccc(-n2nnc(C(=O)N(C)Cc3ccc4ccccc4c3)c2C)cc1
REMARK SMILES IDX 11 1 10 2 12 3 13 4 14 5 15 6 24 7 16 8 23 9 17 10 18 11
REMARK SMILES IDX 22 12 19 13 21 14 20 15 9 16 8 17 25 18 7 19 6 20 26 21 5 22
REMARK SMILES IDX 4 23 27 24 3 25 28 26 2 27 1 28
REMARK H PARENT
ROOT
ATOM      1  O   UNL     1      98.649  93.904 111.239  1.00  0.00    -0.267 OA
ATOM      2  C   UNL     1      99.797  94.037 110.814  1.00  0.00     0.276 C 
ENDROOT
BRANCH   2   3
ATOM      3  N   UNL     1     100.981  93.934 111.574  1.00  0.00    -0.336 N 
ATOM      4  C   UNL     1     101.447  92.652 112.106  1.00  0.00     0.147 C 
BRANCH   3   5
ATOM      5  C   UNL     1     101.797  95.084 111.869  1.00  0.00     0.155 C 
BRANCH   5   6
ATOM      6  C   UNL     1     103.056  94.719 112.580  1.00  0.00    -0.028 A 
ATOM      7  C   UNL     1     104.222  94.478 111.853  1.00  0.00     0.014 A 
ATOM      8  C   UNL     1     103.066  94.618 113.968  1.00  0.00     0.006 A 
ATOM      9  C   UNL     1     105.416  94.133 112.508  1.00  0.00    -0.018 A 
ATOM     10  C   UNL     1     104.243  94.275 114.634  1.00  0.00     0.009 A 
ATOM     11  C   UNL     1     105.426  94.029 113.919  1.00  0.00    -0.018 A 
ATOM     12  C   UNL     1     106.599  93.887 111.793  1.00  0.00     0.009 A 
ATOM     13  C   UNL     1     106.620  93.684 114.574  1.00  0.00     0.009 A 
ATOM     14  C   UNL     1     107.776  93.545 112.459  1.00  0.00     0.001 A 
ATOM     15  C   UNL     1     107.786  93.443 113.847  1.00  0.00     0.001 A 
ENDBRANCH   5   6
ENDBRANCH   3   5
ENDBRANCH   2   3
BRANCH   2  16
ATOM     16  C   UNL     1      99.929  94.315 109.375  1.00  0.00     0.173 A 
ATOM     17  N   UNL     1      99.788  95.566 108.842  1.00  0.00    -0.124 NA
ATOM     18  C   UNL     1     100.204  93.416 108.376  1.00  0.00     0.075 A 
ATOM     19  N   UNL     1      99.968  95.472 107.529  1.00  0.00    -0.061 NA
ATOM     20  N   UNL     1     100.217  94.183 107.251  1.00  0.00    -0.217 N 
ATOM     21  C   UNL     1     100.444  91.962 108.389  1.00  0.00     0.069 C 
BRANCH  20  22
ATOM     22  C   UNL     1     100.451  93.766 105.945  1.00  0.00     0.067 A 
ATOM     23  C   UNL     1     101.754  93.514 105.514  1.00  0.00     0.029 A 
ATOM     24  C   UNL     1      99.382  93.602 105.063  1.00  0.00     0.029 A 
ATOM     25  C   UNL     1     101.987  93.099 104.202  1.00  0.00     0.005 A 
ATOM     26  C   UNL     1      99.614  93.187 103.753  1.00  0.00     0.005 A 
ATOM     27  C   UNL     1     100.918  92.935 103.322  1.00  0.00    -0.051 A 
ATOM     28  C   UNL     1     101.168  92.493 101.920  1.00  0.00     0.044 C 
ENDBRANCH  20  22
ENDBRANCH   2  16
TORSDOF 5
ENDMDL
MODEL 6
REMARK VINA RESULT:      -7.4     12.081     14.178
REMARK SMILES Cc1ccc(-n2nnc(C(=O)N(C)Cc3ccc4ccccc4c3)c2C)cc1
REMARK SMILES IDX 11 1 10 2 12 3 13 4 14 5 15 6 24 7 16 8 23 9 17 10 18 11
REMARK SMILES IDX 22 12 19 13 21 14 20 15 9 16 8 17 25 18 7 19 6 20 26 21 5 22
REMARK SMILES IDX 4 23 27 24 3 25 28 26 2 27 1 28
REMARK H PARENT
ROOT
ATOM      1  O   UNL     1     102.053  98.333 115.911  1.00  0.00    -0.267 OA
ATOM      2  C   UNL     1     102.375  97.150 115.793  1.00  0.00     0.276 C 
ENDROOT
BRANCH   2   3
ATOM      3  N   UNL     1     103.398  96.494 116.508  1.00  0.00    -0.336 N 
ATOM      4  C   UNL     1     103.106  95.433 117.475  1.00  0.00     0.147 C 
BRANCH   3   5
ATOM      5  C   UNL     1     104.787  96.829 116.328  1.00  0.00     0.155 C 
BRANCH   5   6
ATOM      6  C   UNL     1     105.454  95.960 115.316  1.00  0.00    -0.028 A 
ATOM      7  C   UNL     1     105.454  96.331 113.971  1.00  0.00     0.014 A 
ATOM      8  C   UNL     1     106.074  94.779 115.713  1.00  0.00     0.006 A 
ATOM      9  C   UNL     1     106.077  95.523 113.005  1.00  0.00    -0.018 A 
ATOM     10  C   UNL     1     106.696  93.965 114.767  1.00  0.00     0.009 A 
ATOM     11  C   UNL     1     106.707  94.322 113.409  1.00  0.00    -0.018 A 
ATOM     12  C   UNL     1     106.088  95.881 111.647  1.00  0.00     0.009 A 
ATOM     13  C   UNL     1     107.330  93.514 112.444  1.00  0.00     0.009 A 
ATOM     14  C   UNL     1     106.711  95.066 110.701  1.00  0.00     0.001 A 
ATOM     15  C   UNL     1     107.331  93.885 111.099  1.00  0.00     0.001 A 
ENDBRANCH   5   6
ENDBRANCH   3   5
ENDBRANCH   2   3
BRANCH   2  16
ATOM     16  C   UNL     1     101.602  96.359 114.823  1.00  0.00     0.173 A 
ATOM     17  N   UNL     1     100.640  95.460 115.192  1.00  0.00    -0.124 NA
ATOM     18  C   UNL     1     101.706  96.387 113.456  1.00  0.00     0.075 A 
ATOM     19  N   UNL     1     100.138  94.922 114.085  1.00  0.00    -0.061 NA
ATOM     20  N   UNL     1     100.778  95.479 113.046  1.00  0.00    -0.217 N 
ATOM     21  C   UNL     1     102.567  97.161 112.542  1.00  0.00     0.069 C 
BRANCH  20  22
ATOM     22  C   UNL     1     100.468  95.116 111.739  1.00  0.00     0.067 A 
ATOM     23  C   UNL     1      99.686  95.957 110.947  1.00  0.00     0.029 A 
ATOM     24  C   UNL     1     100.938  93.909 111.221  1.00  0.00     0.029 A 
ATOM     25  C   UNL     1      99.373  95.590 109.638  1.00  0.00     0.005 A 
ATOM     26  C   UNL     1     100.626  93.542 109.913  1.00  0.00     0.005 A 
ATOM     27  C   UNL     1      99.843  94.383 109.120  1.00  0.00    -0.051 A 
ATOM     28  C   UNL     1      99.508  93.991 107.721  1.00  0.00     0.044 C 
ENDBRANCH  20  22
ENDBRANCH   2  16
TORSDOF 5
ENDMDL
MODEL 7
REMARK VINA RESULT:      -7.3     12.275     15.642
REMARK SMILES Cc1ccc(-n2nnc(C(=O)N(C)Cc3ccc4ccccc4c3)c2C)cc1
REMARK SMILES IDX 11 1 10 2 12 3 13 4 14 5 15 6 24 7 16 8 23 9 17 10 18 11
REMARK SMILES IDX 22 12 19 13 21 14 20 15 9 16 8 17 25 18 7 19 6 20 26 21 5 22
REMARK SMILES IDX 4 23 27 24 3 25 28 26 2 27 1 28
REMARK H PARENT
ROOT
ATOM      1  O   UNL     1      98.649  94.943 112.162  1.00  0.00    -0.267 OA
ATOM      2  C   UNL     1      99.470  94.921 111.244  1.00  0.00     0.276 C 
ENDROOT
BRANCH   2   3
ATOM      3  N   UNL     1      99.191  94.664 109.886  1.00  0.00    -0.336 N 
ATOM      4  C   UNL     1      98.776  93.338 109.422  1.00  0.00     0.147 C 
BRANCH   3   5
ATOM      5  C   UNL     1      99.297  95.689 108.881  1.00  0.00     0.155 C 
BRANCH   5   6
ATOM      6  C   UNL     1      99.407  95.125 107.505  1.00  0.00    -0.028 A 
ATOM      7  C   UNL     1     100.605  94.549 107.081  1.00  0.00     0.014 A 
ATOM      8  C   UNL     1      98.314  95.174 106.643  1.00  0.00     0.006 A 
ATOM      9  C   UNL     1     100.725  94.013 105.788  1.00  0.00    -0.018 A 
ATOM     10  C   UNL     1      98.416  94.647 105.356  1.00  0.00     0.009 A 
ATOM     11  C   UNL     1      99.615  94.063 104.912  1.00  0.00    -0.018 A 
ATOM     12  C   UNL     1     101.923  93.430 105.345  1.00  0.00     0.009 A 
ATOM     13  C   UNL     1      99.734  93.528 103.620  1.00  0.00     0.009 A 
ATOM     14  C   UNL     1     102.025  92.904 104.057  1.00  0.00     0.001 A 
ATOM     15  C   UNL     1     100.932  92.952 103.196  1.00  0.00     0.001 A 
ENDBRANCH   5   6
ENDBRANCH   3   5
ENDBRANCH   2   3
BRANCH   2  16
ATOM     16  C   UNL     1     100.866  95.206 111.614  1.00  0.00     0.173 A 
ATOM     17  N   UNL     1     101.367  96.474 111.713  1.00  0.00    -0.124 NA
ATOM     18  C   UNL     1     101.850  94.297 111.908  1.00  0.00     0.075 A 
ATOM     19  N   UNL     1     102.646  96.381 112.063  1.00  0.00    -0.061 NA
ATOM     20  N   UNL     1     102.933  95.076 112.180  1.00  0.00    -0.217 N 
ATOM     21  C   UNL     1     101.858  92.823 111.954  1.00  0.00     0.069 C 
BRANCH  20  22
ATOM     22  C   UNL     1     104.210  94.655 112.541  1.00  0.00     0.067 A 
ATOM     23  C   UNL     1     105.183  94.458 111.561  1.00  0.00     0.029 A 
ATOM     24  C   UNL     1     104.515  94.428 113.883  1.00  0.00     0.029 A 
ATOM     25  C   UNL     1     106.461  94.032 111.925  1.00  0.00     0.005 A 
ATOM     26  C   UNL     1     105.792  94.003 114.246  1.00  0.00     0.005 A 
ATOM     27  C   UNL     1     106.767  93.805 113.267  1.00  0.00    -0.051 A 
ATOM     28  C   UNL     1     108.133  93.350 113.654  1.00  0.00     0.044 C 
ENDBRANCH  20  22
ENDBRANCH   2  16
TORSDOF 5
ENDMDL
MODEL 8
REMARK VINA RESULT:      -7.3     12.285     13.567
REMARK SMILES Cc1ccc(-n2nnc(C(=O)N(C)Cc3ccc4ccccc4c3)c2C)cc1
REMARK SMILES IDX 11 1 10 2 12 3 13 4 14 5 15 6 24 7 16 8 23 9 17 10 18 11
REMARK SMILES IDX 22 12 19 13 21 14 20 15 9 16 8 17 25 18 7 19 6 20 26 21 5 22
REMARK SMILES IDX 4 23 27 24 3 25 28 26 2 27 1 28
REMARK H PARENT
ROOT
ATOM      1  O   UNL     1      97.396  94.057 110.558  1.00  0.00    -0.267 OA
ATOM      2  C   UNL     1      98.622  94.028 110.451  1.00  0.00     0.276 C 
ENDROOT
BRANCH   2   3
ATOM      3  N   UNL     1      99.540  93.739 111.482  1.00  0.00    -0.336 N 
ATOM      4  C   UNL     1      99.143  93.746 112.892  1.00  0.00     0.147 C 
BRANCH   3   5
ATOM      5  C   UNL     1     100.917  93.420 111.206  1.00  0.00     0.155 C 
BRANCH   5   6
ATOM      6  C   UNL     1     101.847  94.508 111.626  1.00  0.00    -0.028 A 
ATOM      7  C   UNL     1     103.161  94.203 111.981  1.00  0.00     0.014 A 
ATOM      8  C   UNL     1     101.402  95.826 111.665  1.00  0.00     0.006 A 
ATOM      9  C   UNL     1     104.049  95.216 112.379  1.00  0.00    -0.018 A 
ATOM     10  C   UNL     1     102.270  96.844 112.059  1.00  0.00     0.009 A 
ATOM     11  C   UNL     1     103.597  96.556 112.419  1.00  0.00    -0.018 A 
ATOM     12  C   UNL     1     105.375  94.928 112.740  1.00  0.00     0.009 A 
ATOM     13  C   UNL     1     104.484  97.569 112.818  1.00  0.00     0.009 A 
ATOM     14  C   UNL     1     106.243  95.946 113.134  1.00  0.00     0.001 A 
ATOM     15  C   UNL     1     105.798  97.264 113.172  1.00  0.00     0.001 A 
ENDBRANCH   5   6
ENDBRANCH   3   5
ENDBRANCH   2   3
BRANCH   2  16
ATOM     16  C   UNL     1      99.164  94.312 109.112  1.00  0.00     0.173 A 
ATOM     17  N   UNL     1      99.411  95.578 108.661  1.00  0.00    -0.124 NA
ATOM     18  C   UNL     1      99.498  93.403 108.140  1.00  0.00     0.075 A 
ATOM     19  N   UNL     1      99.893  95.485 107.426  1.00  0.00    -0.061 NA
ATOM     20  N   UNL     1      99.944  94.181 107.116  1.00  0.00    -0.217 N 
ATOM     21  C   UNL     1      99.436  91.931 108.096  1.00  0.00     0.069 C 
BRANCH  20  22
ATOM     22  C   UNL     1     100.413  93.760 105.875  1.00  0.00     0.067 A 
ATOM     23  C   UNL     1     101.776  93.542 105.680  1.00  0.00     0.029 A 
ATOM     24  C   UNL     1      99.517  93.558 104.824  1.00  0.00     0.029 A 
ATOM     25  C   UNL     1     102.244  93.124 104.433  1.00  0.00     0.005 A 
ATOM     26  C   UNL     1      99.984  93.139 103.580  1.00  0.00     0.005 A 
ATOM     27  C   UNL     1     101.349  92.921 103.383  1.00  0.00    -0.051 A 
ATOM     28  C   UNL     1     101.850  92.474 102.052  1.00  0.00     0.044 C 
ENDBRANCH  20  22
ENDBRANCH   2  16
TORSDOF 5
ENDMDL
MODEL 9
REMARK VINA RESULT:      -7.3     12.146     14.319
REMARK SMILES Cc1ccc(-n2nnc(C(=O)N(C)Cc3ccc4ccccc4c3)c2C)cc1
REMARK SMILES IDX 11 1 10 2 12 3 13 4 14 5 15 6 24 7 16 8 23 9 17 10 18 11
REMARK SMILES IDX 22 12 19 13 21 14 20 15 9 16 8 17 25 18 7 19 6 20 26 21 5 22
REMARK SMILES IDX 4 23 27 24 3 25 28 26 2 27 1 28
REMARK H PARENT
ROOT
ATOM      1  O   UNL     1      99.795  96.063 110.469  1.00  0.00    -0.267 OA
ATOM      2  C   UNL     1     100.170  95.833 111.619  1.00  0.00     0.276 C 
ENDROOT
BRANCH   2   3
ATOM      3  N   UNL     1      99.345  95.476 112.706  1.00  0.00    -0.336 N 
ATOM      4  C   UNL     1      98.396  94.363 112.621  1.00  0.00     0.147 C 
BRANCH   3   5
ATOM      5  C   UNL     1      99.390  96.184 113.959  1.00  0.00     0.155 C 
BRANCH   5   6
ATOM      6  C   UNL     1     100.563  95.790 114.792  1.00  0.00    -0.028 A 
ATOM      7  C   UNL     1     101.541  96.732 115.108  1.00  0.00     0.014 A 
ATOM      8  C   UNL     1     100.681  94.481 115.252  1.00  0.00     0.006 A 
ATOM      9  C   UNL     1     102.652  96.377 115.891  1.00  0.00    -0.018 A 
ATOM     10  C   UNL     1     101.778  94.111 116.030  1.00  0.00     0.009 A 
ATOM     11  C   UNL     1     102.773  95.046 116.359  1.00  0.00    -0.018 A 
ATOM     12  C   UNL     1     103.647  97.312 116.219  1.00  0.00     0.009 A 
ATOM     13  C   UNL     1     103.883  94.691 117.141  1.00  0.00     0.009 A 
ATOM     14  C   UNL     1     104.744  96.942 116.997  1.00  0.00     0.001 A 
ATOM     15  C   UNL     1     104.862  95.633 117.457  1.00  0.00     0.001 A 
ENDBRANCH   5   6
ENDBRANCH   3   5
ENDBRANCH   2   3
BRANCH   2  16
ATOM     16  C   UNL     1     101.618  95.931 111.862  1.00  0.00     0.173 A 
ATOM     17  N   UNL     1     102.292  97.120 111.882  1.00  0.00    -0.124 NA
ATOM     18  C   UNL     1     102.493  94.901 112.099  1.00  0.00     0.075 A 
ATOM     19  N   UNL     1     103.572  96.861 112.127  1.00  0.00    -0.061 NA
ATOM     20  N   UNL     1     103.691  95.530 112.257  1.00  0.00    -0.217 N 
ATOM     21  C   UNL     1     102.307  93.442 112.186  1.00  0.00     0.069 C 
BRANCH  20  22
ATOM     22  C   UNL     1     104.925  94.946 112.521  1.00  0.00     0.067 A 
ATOM     23  C   UNL     1     105.724  94.493 111.471  1.00  0.00     0.029 A 
ATOM     24  C   UNL     1     105.364  94.810 113.839  1.00  0.00     0.029 A 
ATOM     25  C   UNL     1     106.960  93.904 111.739  1.00  0.00     0.005 A 
ATOM     26  C   UNL     1     106.599  94.223 114.107  1.00  0.00     0.005 A 
ATOM     27  C   UNL     1     107.398  93.769 113.056  1.00  0.00    -0.051 A 
ATOM     28  C   UNL     1     108.719  93.139 113.341  1.00  0.00     0.044 C 
ENDBRANCH  20  22
ENDBRANCH   2  16
TORSDOF 5
ENDMDL
MODEL 10
REMARK VINA RESULT:      -7.2     11.562     13.631
REMARK SMILES Cc1ccc(-n2nnc(C(=O)N(C)Cc3ccc4ccccc4c3)c2C)cc1
REMARK SMILES IDX 11 1 10 2 12 3 13 4 14 5 15 6 24 7 16 8 23 9 17 10 18 11
REMARK SMILES IDX 22 12 19 13 21 14 20 15 9 16 8 17 25 18 7 19 6 20 26 21 5 22
REMARK SMILES IDX 4 23 27 24 3 25 28 26 2 27 1 28
REMARK H PARENT
ROOT
ATOM      1  O   UNL     1     100.428  94.771 114.619  1.00  0.00    -0.267 OA
ATOM      2  C   UNL     1     100.663  95.691 113.836  1.00  0.00     0.276 C 
ENDROOT
BRANCH   2   3
ATOM      3  N   UNL     1     101.364  96.878 114.136  1.00  0.00    -0.336 N 
ATOM      4  C   UNL     1     101.007  97.715 115.284  1.00  0.00     0.147 C 
BRANCH   3   5
ATOM      5  C   UNL     1     102.468  97.333 113.331  1.00  0.00     0.155 C 
BRANCH   5   6
ATOM      6  C   UNL     1     103.679  96.479 113.496  1.00  0.00    -0.028 A 
ATOM      7  C   UNL     1     104.313  95.944 112.374  1.00  0.00     0.014 A 
ATOM      8  C   UNL     1     104.177  96.216 114.769  1.00  0.00     0.006 A 
ATOM      9  C   UNL     1     105.455  95.138 112.512  1.00  0.00    -0.018 A 
ATOM     10  C   UNL     1     105.310  95.417 114.924  1.00  0.00     0.009 A 
ATOM     11  C   UNL     1     105.960  94.870 113.806  1.00  0.00    -0.018 A 
ATOM     12  C   UNL     1     106.105  94.590 111.394  1.00  0.00     0.009 A 
ATOM     13  C   UNL     1     107.102  94.063 113.945  1.00  0.00     0.009 A 
ATOM     14  C   UNL     1     107.237  93.791 111.550  1.00  0.00     0.001 A 
ATOM     15  C   UNL     1     107.735  93.528 112.823  1.00  0.00     0.001 A 
ENDBRANCH   5   6
ENDBRANCH   3   5
ENDBRANCH   2   3
BRANCH   2  16
ATOM     16  C   UNL     1     100.173  95.515 112.459  1.00  0.00     0.173 A 
ATOM     17  N   UNL     1      99.077  96.168 111.969  1.00  0.00    -0.124 NA
ATOM     18  C   UNL     1     100.705  94.710 111.484  1.00  0.00     0.075 A 
ATOM     19  N   UNL     1      98.907  95.791 110.706  1.00  0.00    -0.061 NA
ATOM     20  N   UNL     1      99.884  94.917 110.417  1.00  0.00    -0.217 N 
ATOM     21  C   UNL     1     101.866  93.803 111.470  1.00  0.00     0.069 C 
BRANCH  20  22
ATOM     22  C   UNL     1      99.975  94.339 109.155  1.00  0.00     0.067 A 
ATOM     23  C   UNL     1     100.036  95.148 108.019  1.00  0.00     0.029 A 
ATOM     24  C   UNL     1     100.001  92.950 109.024  1.00  0.00     0.029 A 
ATOM     25  C   UNL     1     100.123  94.566 106.754  1.00  0.00     0.005 A 
ATOM     26  C   UNL     1     100.089  92.370 107.760  1.00  0.00     0.005 A 
ATOM     27  C   UNL     1     100.150  93.178 106.623  1.00  0.00    -0.051 A 
ATOM     28  C   UNL     1     100.243  92.558 105.270  1.00  0.00     0.044 C 
ENDBRANCH  20  22
ENDBRANCH   2  16
TORSDOF 5
ENDMDL
MODEL 11
REMARK VINA RESULT:      -7.2     10.263     13.372
REMARK SMILES Cc1ccc(-n2nnc(C(=O)N(C)Cc3ccc4ccccc4c3)c2C)cc1
REMARK SMILES IDX 11 1 10 2 12 3 13 4 14 5 15 6 24 7 16 8 23 9 17 10 18 11
REMARK SMILES IDX 22 12 19 13 21 14 20 15 9 16 8 17 25 18 7 19 6 20 26 21 5 22
REMARK SMILES IDX 4 23 27 24 3 25 28 26 2 27 1 28
REMARK H PARENT
ROOT
ATOM      1  O   UNL     1      99.826  96.295 110.633  1.00  0.00    -0.267 OA
ATOM      2  C   UNL     1     100.197  95.881 111.732  1.00  0.00     0.276 C 
ENDROOT
BRANCH   2   3
ATOM      3  N   UNL     1      99.372  95.330 112.733  1.00  0.00    -0.336 N 
ATOM      4  C   UNL     1      98.213  94.496 112.405  1.00  0.00     0.147 C 
BRANCH   3   5
ATOM      5  C   UNL     1      99.623  95.554 114.134  1.00  0.00     0.155 C 
BRANCH   5   6
ATOM      6  C   UNL     1      99.210  96.918 114.573  1.00  0.00    -0.028 A 
ATOM      7  C   UNL     1     100.063  97.681 115.371  1.00  0.00     0.014 A 
ATOM      8  C   UNL     1      97.974  97.428 114.186  1.00  0.00     0.006 A 
ATOM      9  C   UNL     1      99.689  98.968 115.793  1.00  0.00    -0.018 A 
ATOM     10  C   UNL     1      97.587  98.704 114.597  1.00  0.00     0.009 A 
ATOM     11  C   UNL     1      98.432  99.487 115.401  1.00  0.00    -0.018 A 
ATOM     12  C   UNL     1     100.534  99.749 116.596  1.00  0.00     0.009 A 
ATOM     13  C   UNL     1      98.058 100.772 115.823  1.00  0.00     0.009 A 
ATOM     14  C   UNL     1     100.147 101.025 117.007  1.00  0.00     0.001 A 
ATOM     15  C   UNL     1      98.911 101.535 116.621  1.00  0.00     0.001 A 
ENDBRANCH   5   6
ENDBRANCH   3   5
ENDBRANCH   2   3
BRANCH   2  16
ATOM     16  C   UNL     1     101.642  95.966 112.004  1.00  0.00     0.173 A 
ATOM     17  N   UNL     1     102.310  97.153 112.116  1.00  0.00    -0.124 NA
ATOM     18  C   UNL     1     102.516  94.925 112.184  1.00  0.00     0.075 A 
ATOM     19  N   UNL     1     103.587  96.880 112.363  1.00  0.00    -0.061 NA
ATOM     20  N   UNL     1     103.709  95.544 112.403  1.00  0.00    -0.217 N 
ATOM     21  C   UNL     1     102.334  93.462 112.167  1.00  0.00     0.069 C 
BRANCH  20  22
ATOM     22  C   UNL     1     104.941  94.946 112.647  1.00  0.00     0.067 A 
ATOM     23  C   UNL     1     105.418  94.836 113.953  1.00  0.00     0.029 A 
ATOM     24  C   UNL     1     105.702  94.461 111.583  1.00  0.00     0.029 A 
ATOM     25  C   UNL     1     106.656  94.239 114.195  1.00  0.00     0.005 A 
ATOM     26  C   UNL     1     106.938  93.864 111.825  1.00  0.00     0.005 A 
ATOM     27  C   UNL     1     107.416  93.753 113.132  1.00  0.00    -0.051 A 
ATOM     28  C   UNL     1     108.739  93.116 113.391  1.00  0.00     0.044 C 
ENDBRANCH  20  22
ENDBRANCH   2  16
TORSDOF 5
ENDMDL
MODEL 12
REMARK VINA RESULT:      -7.2     12.707     15.010
REMARK SMILES Cc1ccc(-n2nnc(C(=O)N(C)Cc3ccc4ccccc4c3)c2C)cc1
REMARK SMILES IDX 11 1 10 2 12 3 13 4 14 5 15 6 24 7 16 8 23 9 17 10 18 11
REMARK SMILES IDX 22 12 19 13 21 14 20 15 9 16 8 17 25 18 7 19 6 20 26 21 5 22
REMARK SMILES IDX 4 23 27 24 3 25 28 26 2 27 1 28
REMARK H PARENT
ROOT
ATOM      1  O   UNL     1     102.266  95.632 117.475  1.00  0.00    -0.267 OA
ATOM      2  C   UNL     1     102.798  94.763 116.783  1.00  0.00     0.276 C 
ENDROOT
BRANCH   2   3
ATOM      3  N   UNL     1     104.050  94.160 117.025  1.00  0.00    -0.336 N 
ATOM      4  C   UNL     1     104.166  92.752 117.412  1.00  0.00     0.147 C 
BRANCH   3   5
ATOM      5  C   UNL     1     105.282  94.895 116.905  1.00  0.00     0.155 C 
BRANCH   5   6
ATOM      6  C   UNL     1     105.595  95.251 115.491  1.00  0.00    -0.028 A 
ATOM      7  C   UNL     1     105.970  94.255 114.589  1.00  0.00     0.014 A 
ATOM      8  C   UNL     1     105.514  96.576 115.073  1.00  0.00     0.006 A 
ATOM      9  C   UNL     1     106.268  94.573 113.254  1.00  0.00    -0.018 A 
ATOM     10  C   UNL     1     105.807  96.910 113.751  1.00  0.00     0.009 A 
ATOM     11  C   UNL     1     106.186  95.921 112.828  1.00  0.00    -0.018 A 
ATOM     12  C   UNL     1     106.648  93.585 112.332  1.00  0.00     0.009 A 
ATOM     13  C   UNL     1     106.484  96.240 111.494  1.00  0.00     0.009 A 
ATOM     14  C   UNL     1     106.941  93.919 111.010  1.00  0.00     0.001 A 
ATOM     15  C   UNL     1     106.860  95.244 110.591  1.00  0.00     0.001 A 
ENDBRANCH   5   6
ENDBRANCH   3   5
ENDBRANCH   2   3
BRANCH   2  16
ATOM     16  C   UNL     1     102.037  94.313 115.606  1.00  0.00     0.173 A 
ATOM     17  N   UNL     1     101.438  93.086 115.530  1.00  0.00    -0.124 NA
ATOM     18  C   UNL     1     101.810  95.010 114.447  1.00  0.00     0.075 A 
ATOM     19  N   UNL     1     100.839  92.997 114.348  1.00  0.00    -0.061 NA
ATOM     20  N   UNL     1     101.063  94.151 113.700  1.00  0.00    -0.217 N 
ATOM     21  C   UNL     1     102.218  96.354 114.002  1.00  0.00     0.069 C 
BRANCH  20  22
ATOM     22  C   UNL     1     100.555  94.362 112.422  1.00  0.00     0.067 A 
ATOM     23  C   UNL     1     101.100  93.682 111.332  1.00  0.00     0.029 A 
ATOM     24  C   UNL     1      99.503  95.258 112.230  1.00  0.00     0.029 A 
ATOM     25  C   UNL     1     100.591  93.899 110.051  1.00  0.00     0.005 A 
ATOM     26  C   UNL     1      98.995  95.473 110.950  1.00  0.00     0.005 A 
ATOM     27  C   UNL     1      99.539  94.793 109.859  1.00  0.00    -0.051 A 
ATOM     28  C   UNL     1      98.997  95.024 108.489  1.00  0.00     0.044 C 
ENDBRANCH  20  22
ENDBRANCH   2  16
TORSDOF 5
ENDMDL
MODEL 13
REMARK VINA RESULT:      -7.1     10.387     13.273
REMARK SMILES Cc1ccc(-n2nnc(C(=O)N(C)Cc3ccc4ccccc4c3)c2C)cc1
REMARK SMILES IDX 11 1 10 2 12 3 13 4 14 5 15 6 24 7 16 8 23 9 17 10 18 11
REMARK SMILES IDX 22 12 19 13 21 14 20 15 9 16 8 17 25 18 7 19 6 20 26 21 5 22
REMARK SMILES IDX 4 23 27 24 3 25 28 26 2 27 1 28
REMARK H PARENT
ROOT
ATOM      1  O   UNL     1      99.825  95.737 110.334  1.00  0.00    -0.267 OA
ATOM      2  C   UNL     1     100.111  95.943 111.513  1.00  0.00     0.276 C 
ENDROOT
BRANCH   2   3
ATOM      3  N   UNL     1      99.196  96.090 112.576  1.00  0.00    -0.336 N 
ATOM      4  C   UNL     1      97.847  96.621 112.365  1.00  0.00     0.147 C 
BRANCH   3   5
ATOM      5  C   UNL     1      99.536  95.727 113.928  1.00  0.00     0.155 C 
BRANCH   5   6
ATOM      6  C   UNL     1      99.968  96.902 114.739  1.00  0.00    -0.028 A 
ATOM      7  C   UNL     1      99.089  97.965 114.949  1.00  0.00     0.014 A 
ATOM      8  C   UNL     1     101.248  96.938 115.284  1.00  0.00     0.006 A 
ATOM      9  C   UNL     1      99.480  99.079 115.710  1.00  0.00    -0.018 A 
ATOM     10  C   UNL     1     101.654  98.036 116.042  1.00  0.00     0.009 A 
ATOM     11  C   UNL     1     100.782  99.115 116.265  1.00  0.00    -0.018 A 
ATOM     12  C   UNL     1      98.610 100.157 115.932  1.00  0.00     0.009 A 
ATOM     13  C   UNL     1     101.174 100.229 117.025  1.00  0.00     0.009 A 
ATOM     14  C   UNL     1      99.015 101.256 116.690  1.00  0.00     0.001 A 
ATOM     15  C   UNL     1     100.295 101.291 117.236  1.00  0.00     0.001 A 
ENDBRANCH   5   6
ENDBRANCH   3   5
ENDBRANCH   2   3
BRANCH   2  16
ATOM     16  C   UNL     1     101.546  96.026 111.829  1.00  0.00     0.173 A 
ATOM     17  N   UNL     1     102.214  97.213 111.954  1.00  0.00    -0.124 NA
ATOM     18  C   UNL     1     102.412  94.985 112.043  1.00  0.00     0.075 A 
ATOM     19  N   UNL     1     103.482  96.939 112.241  1.00  0.00    -0.061 NA
ATOM     20  N   UNL     1     103.599  95.603 112.294  1.00  0.00    -0.217 N 
ATOM     21  C   UNL     1     102.228  93.522 112.031  1.00  0.00     0.069 C 
BRANCH  20  22
ATOM     22  C   UNL     1     104.822  95.005 112.579  1.00  0.00     0.067 A 
ATOM     23  C   UNL     1     105.235  94.856 113.903  1.00  0.00     0.029 A 
ATOM     24  C   UNL     1     105.638  94.557 111.540  1.00  0.00     0.029 A 
ATOM     25  C   UNL     1     106.464  94.258 114.187  1.00  0.00     0.005 A 
ATOM     26  C   UNL     1     106.865  93.960 111.823  1.00  0.00     0.005 A 
ATOM     27  C   UNL     1     107.279  93.810 113.148  1.00  0.00    -0.051 A 
ATOM     28  C   UNL     1     108.592  93.172 113.452  1.00  0.00     0.044 C 
ENDBRANCH  20  22
ENDBRANCH   2  16
TORSDOF 5
ENDMDL
MODEL 14
REMARK VINA RESULT:      -7.1     12.279     15.536
REMARK SMILES Cc1ccc(-n2nnc(C(=O)N(C)Cc3ccc4ccccc4c3)c2C)cc1
REMARK SMILES IDX 11 1 10 2 12 3 13 4 14 5 15 6 24 7 16 8 23 9 17 10 18 11
REMARK SMILES IDX 22 12 19 13 21 14 20 15 9 16 8 17 25 18 7 19 6 20 26 21 5 22
REMARK SMILES IDX 4 23 27 24 3 25 28 26 2 27 1 28
REMARK H PARENT
ROOT
ATOM      1  O   UNL     1      98.638  94.889 112.765  1.00  0.00    -0.267 OA
ATOM      2  C   UNL     1      99.354  95.127 111.792  1.00  0.00     0.276 C 
ENDROOT
BRANCH   2   3
ATOM      3  N   UNL     1      98.932  95.194 110.448  1.00  0.00    -0.336 N 
ATOM      4  C   UNL     1      97.581  94.799 110.042  1.00  0.00     0.147 C 
BRANCH   3   5
ATOM      5  C   UNL     1      99.805  95.656 109.399  1.00  0.00     0.155 C 
BRANCH   5   6
ATOM      6  C   UNL     1      99.913  94.677 108.279  1.00  0.00    -0.028 A 
ATOM      7  C   UNL     1      99.609  95.074 106.976  1.00  0.00     0.014 A 
ATOM      8  C   UNL     1     100.315  93.370 108.534  1.00  0.00     0.006 A 
ATOM      9  C   UNL     1      99.705  94.165 105.910  1.00  0.00    -0.018 A 
ATOM     10  C   UNL     1     100.415  92.453 107.486  1.00  0.00     0.009 A 
ATOM     11  C   UNL     1     100.113  92.834 106.169  1.00  0.00    -0.018 A 
ATOM     12  C   UNL     1      99.403  94.546 104.593  1.00  0.00     0.009 A 
ATOM     13  C   UNL     1     100.209  91.925 105.103  1.00  0.00     0.009 A 
ATOM     14  C   UNL     1      99.503  93.629 103.546  1.00  0.00     0.001 A 
ATOM     15  C   UNL     1      99.905  92.322 103.800  1.00  0.00     0.001 A 
ENDBRANCH   5   6
ENDBRANCH   3   5
ENDBRANCH   2   3
BRANCH   2  16
ATOM     16  C   UNL     1     100.776  95.374 112.076  1.00  0.00     0.173 A 
ATOM     17  N   UNL     1     101.285  96.623 112.301  1.00  0.00    -0.124 NA
ATOM     18  C   UNL     1     101.781  94.445 112.161  1.00  0.00     0.075 A 
ATOM     19  N   UNL     1     102.588  96.499 112.526  1.00  0.00    -0.061 NA
ATOM     20  N   UNL     1     102.884  95.192 112.442  1.00  0.00    -0.217 N 
ATOM     21  C   UNL     1     101.792  92.979 112.007  1.00  0.00     0.069 C 
BRANCH  20  22
ATOM     22  C   UNL     1     104.187  94.741 112.633  1.00  0.00     0.067 A 
ATOM     23  C   UNL     1     104.634  94.422 113.915  1.00  0.00     0.029 A 
ATOM     24  C   UNL     1     105.046  94.611 111.541  1.00  0.00     0.029 A 
ATOM     25  C   UNL     1     105.942  93.974 114.105  1.00  0.00     0.005 A 
ATOM     26  C   UNL     1     106.352  94.163 111.731  1.00  0.00     0.005 A 
ATOM     27  C   UNL     1     106.801  93.843 113.014  1.00  0.00    -0.051 A 
ATOM     28  C   UNL     1     108.198  93.364 113.218  1.00  0.00     0.044 C 
ENDBRANCH  20  22
ENDBRANCH   2  16
TORSDOF 5
ENDMDL
MODEL 15
REMARK VINA RESULT:      -7.1     12.243     13.857
REMARK SMILES Cc1ccc(-n2nnc(C(=O)N(C)Cc3ccc4ccccc4c3)c2C)cc1
REMARK SMILES IDX 11 1 10 2 12 3 13 4 14 5 15 6 24 7 16 8 23 9 17 10 18 11
REMARK SMILES IDX 22 12 19 13 21 14 20 15 9 16 8 17 25 18 7 19 6 20 26 21 5 22
REMARK SMILES IDX 4 23 27 24 3 25 28 26 2 27 1 28
REMARK H PARENT
ROOT
ATOM      1  O   UNL     1      98.885  95.953 109.935  1.00  0.00    -0.267 OA
ATOM      2  C   UNL     1      99.265  94.835 110.282  1.00  0.00     0.276 C 
ENDROOT
BRANCH   2   3
ATOM      3  N   UNL     1      99.226  94.313 111.592  1.00  0.00    -0.336 N 
ATOM      4  C   UNL     1      98.498  93.083 111.910  1.00  0.00     0.147 C 
BRANCH   3   5
ATOM      5  C   UNL     1      99.898  94.961 112.688  1.00  0.00     0.155 C 
BRANCH   5   6
ATOM      6  C   UNL     1     101.373  95.038 112.483  1.00  0.00    -0.028 A 
ATOM      7  C   UNL     1     102.016  96.276 112.502  1.00  0.00     0.014 A 
ATOM      8  C   UNL     1     102.107  93.874 112.272  1.00  0.00     0.006 A 
ATOM      9  C   UNL     1     103.405  96.365 112.310  1.00  0.00    -0.018 A 
ATOM     10  C   UNL     1     103.487  93.945 112.079  1.00  0.00     0.009 A 
ATOM     11  C   UNL     1     104.152  95.182 112.095  1.00  0.00    -0.018 A 
ATOM     12  C   UNL     1     104.068  97.602 112.325  1.00  0.00     0.009 A 
ATOM     13  C   UNL     1     105.540  95.271 111.903  1.00  0.00     0.009 A 
ATOM     14  C   UNL     1     105.448  97.673 112.133  1.00  0.00     0.001 A 
ATOM     15  C   UNL     1     106.182  96.509 111.922  1.00  0.00     0.001 A 
ENDBRANCH   5   6
ENDBRANCH   3   5
ENDBRANCH   2   3
BRANCH   2  16
ATOM     16  C   UNL     1      99.795  93.969 109.216  1.00  0.00     0.173 A 
ATOM     17  N   UNL     1     100.252  92.701 109.445  1.00  0.00    -0.124 NA
ATOM     18  C   UNL     1      99.913  94.268 107.883  1.00  0.00     0.075 A 
ATOM     19  N   UNL     1     100.656  92.197 108.283  1.00  0.00    -0.061 NA
ATOM     20  N   UNL     1     100.452  93.138 107.348  1.00  0.00    -0.217 N 
ATOM     21  C   UNL     1      99.578  95.474 107.104  1.00  0.00     0.069 C 
BRANCH  20  22
ATOM     22  C   UNL     1     100.778  92.903 106.016  1.00  0.00     0.067 A 
ATOM     23  C   UNL     1      99.917  92.162 105.206  1.00  0.00     0.029 A 
ATOM     24  C   UNL     1     101.968  93.408 105.491  1.00  0.00     0.029 A 
ATOM     25  C   UNL     1     100.248  91.925 103.871  1.00  0.00     0.005 A 
ATOM     26  C   UNL     1     102.298  93.171 104.158  1.00  0.00     0.005 A 
ATOM     27  C   UNL     1     101.438  92.430 103.346  1.00  0.00    -0.051 A 
ATOM     28  C   UNL     1     101.791  92.175 101.920  1.00  0.00     0.044 C 
ENDBRANCH  20  22
ENDBRANCH   2  16
TORSDOF 5
ENDMDL
