MODEL 1
REMARK VINA RESULT:      -7.8      0.000      0.000
REMARK SMILES Cc1ccccc1/C=C/C(=O)OCC(=O)NC(=O)Nc1ccccc1F
REMARK SMILES IDX 12 1 13 2 14 3 19 4 17 5 18 6 16 7 15 8 20 11 25 12 24 13
REMARK SMILES IDX 21 14 23 15 22 16 26 17 10 18 11 19 9 20 8 21 7 22 2 23 6 24
REMARK SMILES IDX 3 25 5 26 4 27 1 28
REMARK H PARENT 19 9 16 10
ROOT
ATOM      1  O   UNL     1      97.186 108.962 110.893  1.00  0.00    -0.452 OA
ENDROOT
BRANCH   1   2
ATOM      2  C   UNL     1      97.222 107.936 109.923  1.00  0.00     0.333 C 
BRANCH   2   3
ATOM      3  C   UNL     1      96.540 108.382 108.648  1.00  0.00     0.266 C 
ATOM      4  N   UNL     1      97.206 106.924 105.374  1.00  0.00    -0.305 N 
ATOM      5  C   UNL     1      96.547 107.824 106.219  1.00  0.00     0.326 C 
ATOM      6  O   UNL     1      95.704 108.655 105.891  1.00  0.00    -0.248 OA
ATOM      7  N   UNL     1      96.987 107.652 107.545  1.00  0.00    -0.275 N 
ATOM      8  O   UNL     1      95.701 109.278 108.620  1.00  0.00    -0.271 OA
ATOM      9  H   UNL     1      97.879 106.297 105.806  1.00  0.00     0.171 HD
ATOM     10  H   UNL     1      97.690 106.934 107.707  1.00  0.00     0.174 HD
BRANCH   4  11
ATOM     11  C   UNL     1      97.051 106.774 103.976  1.00  0.00     0.078 A 
ATOM     12  C   UNL     1      98.171 106.620 103.160  1.00  0.00     0.146 A 
ATOM     13  C   UNL     1      98.016 106.474 101.782  1.00  0.00     0.041 A 
ATOM     14  C   UNL     1      95.774 106.783 103.414  1.00  0.00     0.029 A 
ATOM     15  C   UNL     1      96.739 106.482 101.220  1.00  0.00     0.003 A 
ATOM     16  C   UNL     1      95.618 106.636 102.036  1.00  0.00     0.002 A 
ATOM     17  F   UNL     1      99.404 106.610 103.689  1.00  0.00    -0.205 F 
ENDBRANCH   4  11
ENDBRANCH   2   3
ENDBRANCH   1   2
BRANCH   1  18
ATOM     18  C   UNL     1      96.469 108.696 112.028  1.00  0.00     0.331 C 
ATOM     19  O   UNL     1      95.668 109.443 112.567  1.00  0.00    -0.247 OA
BRANCH  18  20
ATOM     20  C   UNL     1      96.830 107.341 112.501  1.00  0.00     0.094 C 
ATOM     21  C   UNL     1      97.289 107.176 113.749  1.00  0.00     0.016 C 
BRANCH  21  22
ATOM     22  C   UNL     1      97.689 105.883 114.332  1.00  0.00    -0.022 A 
ATOM     23  C   UNL     1      98.405 105.816 115.526  1.00  0.00    -0.044 A 
ATOM     24  C   UNL     1      97.336 104.711 113.663  1.00  0.00     0.008 A 
ATOM     25  C   UNL     1      98.770 104.576 116.052  1.00  0.00     0.004 A 
ATOM     26  C   UNL     1      97.700 103.471 114.188  1.00  0.00     0.001 A 
ATOM     27  C   UNL     1      98.417 103.404 115.383  1.00  0.00     0.000 A 
ATOM     28  C   UNL     1      98.799 107.051 116.271  1.00  0.00     0.045 C 
ENDBRANCH  21  22
ENDBRANCH  18  20
ENDBRANCH   1  18
TORSDOF 6
ENDMDL
MODEL 2
REMARK VINA RESULT:      -7.5      0.680      1.477
REMARK SMILES Cc1ccccc1/C=C/C(=O)OCC(=O)NC(=O)Nc1ccccc1F
REMARK SMILES IDX 12 1 13 2 14 3 19 4 17 5 18 6 16 7 15 8 20 11 25 12 24 13
REMARK SMILES IDX 21 14 23 15 22 16 26 17 10 18 11 19 9 20 8 21 7 22 2 23 6 24
REMARK SMILES IDX 3 25 5 26 4 27 1 28
REMARK H PARENT 19 9 16 10
ROOT
ATOM      1  O   UNL     1      97.833 108.678 111.186  1.00  0.00    -0.452 OA
ENDROOT
BRANCH   1   2
ATOM      2  C   UNL     1      97.677 107.656 110.224  1.00  0.00     0.333 C 
BRANCH   2   3
ATOM      3  C   UNL     1      97.002 108.193 108.980  1.00  0.00     0.266 C 
ATOM      4  N   UNL     1      97.446 106.765 105.656  1.00  0.00    -0.305 N 
ATOM      5  C   UNL     1      96.893 107.698 106.540  1.00  0.00     0.326 C 
ATOM      6  O   UNL     1      96.119 108.609 106.256  1.00  0.00    -0.248 OA
ATOM      7  N   UNL     1      97.352 107.454 107.849  1.00  0.00    -0.275 N 
ATOM      8  O   UNL     1      96.246 109.160 108.997  1.00  0.00    -0.271 OA
ATOM      9  H   UNL     1      98.072 106.070 106.053  1.00  0.00     0.171 HD
ATOM     10  H   UNL     1      97.992 106.673 107.974  1.00  0.00     0.174 HD
BRANCH   4  11
ATOM     11  C   UNL     1      97.240 106.665 104.260  1.00  0.00     0.078 A 
ATOM     12  C   UNL     1      98.331 106.554 103.398  1.00  0.00     0.146 A 
ATOM     13  C   UNL     1      98.125 106.458 102.022  1.00  0.00     0.041 A 
ATOM     14  C   UNL     1      95.943 106.679 103.746  1.00  0.00     0.029 A 
ATOM     15  C   UNL     1      96.828 106.471 101.508  1.00  0.00     0.003 A 
ATOM     16  C   UNL     1      95.737 106.581 102.370  1.00  0.00     0.002 A 
ATOM     17  F   UNL     1      99.582 106.540 103.880  1.00  0.00    -0.205 F 
ENDBRANCH   4  11
ENDBRANCH   2   3
ENDBRANCH   1   2
BRANCH   1  18
ATOM     18  C   UNL     1      96.935 108.678 112.220  1.00  0.00     0.331 C 
ATOM     19  O   UNL     1      95.813 109.159 112.200  1.00  0.00    -0.247 OA
BRANCH  18  20
ATOM     20  C   UNL     1      97.555 107.994 113.377  1.00  0.00     0.094 C 
ATOM     21  C   UNL     1      97.203 106.733 113.666  1.00  0.00     0.016 C 
BRANCH  21  22
ATOM     22  C   UNL     1      97.741 105.951 114.793  1.00  0.00    -0.022 A 
ATOM     23  C   UNL     1      98.042 104.596 114.657  1.00  0.00    -0.044 A 
ATOM     24  C   UNL     1      97.948 106.593 116.014  1.00  0.00     0.008 A 
ATOM     25  C   UNL     1      98.550 103.882 115.743  1.00  0.00     0.004 A 
ATOM     26  C   UNL     1      98.455 105.879 117.100  1.00  0.00     0.001 A 
ATOM     27  C   UNL     1      98.757 104.524 116.964  1.00  0.00     0.000 A 
ATOM     28  C   UNL     1      97.835 103.877 113.363  1.00  0.00     0.045 C 
ENDBRANCH  21  22
ENDBRANCH  18  20
ENDBRANCH   1  18
TORSDOF 6
ENDMDL
MODEL 3
REMARK VINA RESULT:      -7.5      2.589      9.987
REMARK SMILES Cc1ccccc1/C=C/C(=O)OCC(=O)NC(=O)Nc1ccccc1F
REMARK SMILES IDX 12 1 13 2 14 3 19 4 17 5 18 6 16 7 15 8 20 11 25 12 24 13
REMARK SMILES IDX 21 14 23 15 22 16 26 17 10 18 11 19 9 20 8 21 7 22 2 23 6 24
REMARK SMILES IDX 3 25 5 26 4 27 1 28
REMARK H PARENT 19 9 16 10
ROOT
ATOM      1  O   UNL     1      96.140 108.880 108.053  1.00  0.00    -0.452 OA
ENDROOT
BRANCH   1   2
ATOM      2  C   UNL     1      95.455 108.699 109.273  1.00  0.00     0.333 C 
BRANCH   2   3
ATOM      3  C   UNL     1      96.395 108.878 110.446  1.00  0.00     0.266 C 
ATOM      4  N   UNL     1      96.874 106.387 113.063  1.00  0.00    -0.305 N 
ATOM      5  C   UNL     1      97.141 107.624 112.466  1.00  0.00     0.326 C 
ATOM      6  O   UNL     1      97.918 108.484 112.875  1.00  0.00    -0.248 OA
ATOM      7  N   UNL     1      96.378 107.768 111.291  1.00  0.00    -0.275 N 
ATOM      8  O   UNL     1      97.076 109.888 110.605  1.00  0.00    -0.271 OA
ATOM      9  H   UNL     1      96.203 105.785 112.594  1.00  0.00     0.171 HD
ATOM     10  H   UNL     1      95.766 106.994 111.043  1.00  0.00     0.174 HD
BRANCH   4  11
ATOM     11  C   UNL     1      97.431 105.859 114.251  1.00  0.00     0.078 A 
ATOM     12  C   UNL     1      98.168 104.676 114.214  1.00  0.00     0.146 A 
ATOM     13  C   UNL     1      98.714 104.157 115.388  1.00  0.00     0.041 A 
ATOM     14  C   UNL     1      97.240 106.524 115.463  1.00  0.00     0.029 A 
ATOM     15  C   UNL     1      98.524 104.823 116.599  1.00  0.00     0.003 A 
ATOM     16  C   UNL     1      97.787 106.007 116.637  1.00  0.00     0.002 A 
ATOM     17  F   UNL     1      98.358 104.028 113.056  1.00  0.00    -0.205 F 
ENDBRANCH   4  11
ENDBRANCH   2   3
ENDBRANCH   1   2
BRANCH   1  18
ATOM     18  C   UNL     1      96.866 107.810 107.602  1.00  0.00     0.331 C 
ATOM     19  O   UNL     1      97.392 106.952 108.293  1.00  0.00    -0.247 OA
BRANCH  18  20
ATOM     20  C   UNL     1      96.909 107.866 106.123  1.00  0.00     0.094 C 
ATOM     21  C   UNL     1      96.719 106.745 105.413  1.00  0.00     0.016 C 
BRANCH  21  22
ATOM     22  C   UNL     1      96.748 106.670 103.942  1.00  0.00    -0.022 A 
ATOM     23  C   UNL     1      97.948 106.530 103.245  1.00  0.00    -0.044 A 
ATOM     24  C   UNL     1      95.541 106.743 103.246  1.00  0.00     0.008 A 
ATOM     25  C   UNL     1      97.941 106.462 101.852  1.00  0.00     0.004 A 
ATOM     26  C   UNL     1      95.535 106.675 101.852  1.00  0.00     0.001 A 
ATOM     27  C   UNL     1      96.735 106.535 101.156  1.00  0.00     0.000 A 
ATOM     28  C   UNL     1      99.259 106.447 103.959  1.00  0.00     0.045 C 
ENDBRANCH  21  22
ENDBRANCH  18  20
ENDBRANCH   1  18
TORSDOF 6
ENDMDL
MODEL 4
REMARK VINA RESULT:      -7.4      1.252      1.771
REMARK SMILES Cc1ccccc1/C=C/C(=O)OCC(=O)NC(=O)Nc1ccccc1F
REMARK SMILES IDX 12 1 13 2 14 3 19 4 17 5 18 6 16 7 15 8 20 11 25 12 24 13
REMARK SMILES IDX 21 14 23 15 22 16 26 17 10 18 11 19 9 20 8 21 7 22 2 23 6 24
REMARK SMILES IDX 3 25 5 26 4 27 1 28
REMARK H PARENT 19 9 16 10
ROOT
ATOM      1  O   UNL     1      96.622 107.300 111.691  1.00  0.00    -0.452 OA
ENDROOT
BRANCH   1   2
ATOM      2  C   UNL     1      97.587 107.865 110.829  1.00  0.00     0.333 C 
BRANCH   2   3
ATOM      3  C   UNL     1      96.932 108.402 109.574  1.00  0.00     0.266 C 
ATOM      4  N   UNL     1      97.289 106.872 106.285  1.00  0.00    -0.305 N 
ATOM      5  C   UNL     1      96.786 107.852 107.147  1.00  0.00     0.326 C 
ATOM      6  O   UNL     1      96.054 108.791 106.844  1.00  0.00    -0.248 OA
ATOM      7  N   UNL     1      97.240 107.619 108.460  1.00  0.00    -0.275 N 
ATOM      8  O   UNL     1      96.222 109.404 109.570  1.00  0.00    -0.271 OA
ATOM      9  H   UNL     1      97.884 106.158 106.697  1.00  0.00     0.171 HD
ATOM     10  H   UNL     1      97.843 106.812 108.602  1.00  0.00     0.174 HD
BRANCH   4  11
ATOM     11  C   UNL     1      97.071 106.747 104.893  1.00  0.00     0.078 A 
ATOM     12  C   UNL     1      98.155 106.666 104.020  1.00  0.00     0.146 A 
ATOM     13  C   UNL     1      97.937 106.544 102.647  1.00  0.00     0.041 A 
ATOM     14  C   UNL     1      95.769 106.707 104.394  1.00  0.00     0.029 A 
ATOM     15  C   UNL     1      96.635 106.503 102.149  1.00  0.00     0.003 A 
ATOM     16  C   UNL     1      95.550 106.584 103.022  1.00  0.00     0.002 A 
ATOM     17  F   UNL     1      99.411 106.703 104.487  1.00  0.00    -0.205 F 
ENDBRANCH   4  11
ENDBRANCH   2   3
ENDBRANCH   1   2
BRANCH   1  18
ATOM     18  C   UNL     1      97.009 107.114 112.991  1.00  0.00     0.331 C 
ATOM     19  O   UNL     1      97.442 107.972 113.745  1.00  0.00    -0.247 OA
BRANCH  18  20
ATOM     20  C   UNL     1      96.817 105.688 113.335  1.00  0.00     0.094 C 
ATOM     21  C   UNL     1      97.809 105.011 113.930  1.00  0.00     0.016 C 
BRANCH  21  22
ATOM     22  C   UNL     1      97.742 103.590 114.313  1.00  0.00    -0.022 A 
ATOM     23  C   UNL     1      98.349 103.123 115.479  1.00  0.00    -0.044 A 
ATOM     24  C   UNL     1      97.054 102.705 113.483  1.00  0.00     0.008 A 
ATOM     25  C   UNL     1      98.269 101.771 115.814  1.00  0.00     0.004 A 
ATOM     26  C   UNL     1      96.973 101.353 113.818  1.00  0.00     0.001 A 
ATOM     27  C   UNL     1      97.580 100.887 114.984  1.00  0.00     0.000 A 
ATOM     28  C   UNL     1      99.094 104.042 116.393  1.00  0.00     0.045 C 
ENDBRANCH  21  22
ENDBRANCH  18  20
ENDBRANCH   1  18
TORSDOF 6
ENDMDL
MODEL 5
REMARK VINA RESULT:      -7.3     13.213     16.492
REMARK SMILES Cc1ccccc1/C=C/C(=O)OCC(=O)NC(=O)Nc1ccccc1F
REMARK SMILES IDX 12 1 13 2 14 3 19 4 17 5 18 6 16 7 15 8 20 11 25 12 24 13
REMARK SMILES IDX 21 14 23 15 22 16 26 17 10 18 11 19 9 20 8 21 7 22 2 23 6 24
REMARK SMILES IDX 3 25 5 26 4 27 1 28
REMARK H PARENT 19 9 16 10
ROOT
ATOM      1  O   UNL     1     100.153  95.949 109.442  1.00  0.00    -0.452 OA
ENDROOT
BRANCH   1   2
ATOM      2  C   UNL     1     100.140  95.908 110.854  1.00  0.00     0.333 C 
BRANCH   2   3
ATOM      3  C   UNL     1     100.929  94.721 111.361  1.00  0.00     0.266 C 
ATOM      4  N   UNL     1     104.426  94.892 112.374  1.00  0.00    -0.305 N 
ATOM      5  C   UNL     1     103.227  94.199 112.172  1.00  0.00     0.326 C 
ATOM      6  O   UNL     1     103.024  93.007 112.384  1.00  0.00    -0.248 OA
ATOM      7  N   UNL     1     102.242  95.075 111.675  1.00  0.00    -0.275 N 
ATOM      8  O   UNL     1     100.444  93.598 111.472  1.00  0.00    -0.271 OA
ATOM      9  H   UNL     1     104.428  95.883 112.149  1.00  0.00     0.171 HD
ATOM     10  H   UNL     1     102.516  96.045 111.536  1.00  0.00     0.174 HD
BRANCH   4  11
ATOM     11  C   UNL     1     105.652  94.380 112.860  1.00  0.00     0.078 A 
ATOM     12  C   UNL     1     106.671  94.043 111.970  1.00  0.00     0.146 A 
ATOM     13  C   UNL     1     107.878  93.537 112.451  1.00  0.00     0.041 A 
ATOM     14  C   UNL     1     105.840  94.211 114.232  1.00  0.00     0.029 A 
ATOM     15  C   UNL     1     108.066  93.369 113.823  1.00  0.00     0.003 A 
ATOM     16  C   UNL     1     107.047  93.706 114.714  1.00  0.00     0.002 A 
ATOM     17  F   UNL     1     106.502  94.201 110.649  1.00  0.00    -0.205 F 
ENDBRANCH   4  11
ENDBRANCH   2   3
ENDBRANCH   1   2
BRANCH   1  18
ATOM     18  C   UNL     1      99.192  95.210 108.807  1.00  0.00     0.331 C 
ATOM     19  O   UNL     1      97.997  95.212 109.057  1.00  0.00    -0.247 OA
BRANCH  18  20
ATOM     20  C   UNL     1      99.847  94.398 107.757  1.00  0.00     0.094 C 
ATOM     21  C   UNL     1      99.832  94.824 106.486  1.00  0.00     0.016 C 
BRANCH  21  22
ATOM     22  C   UNL     1     100.440  94.103 105.353  1.00  0.00    -0.022 A 
ATOM     23  C   UNL     1      99.701  93.790 104.213  1.00  0.00    -0.044 A 
ATOM     24  C   UNL     1     101.782  93.733 105.439  1.00  0.00     0.008 A 
ATOM     25  C   UNL     1     100.305  93.106 103.157  1.00  0.00     0.004 A 
ATOM     26  C   UNL     1     102.386  93.050 104.383  1.00  0.00     0.001 A 
ATOM     27  C   UNL     1     101.647  92.737 103.242  1.00  0.00     0.000 A 
ATOM     28  C   UNL     1      98.262  94.172 104.086  1.00  0.00     0.045 C 
ENDBRANCH  21  22
ENDBRANCH  18  20
ENDBRANCH   1  18
TORSDOF 6
ENDMDL
MODEL 6
REMARK VINA RESULT:      -7.3      3.069     10.070
REMARK SMILES Cc1ccccc1/C=C/C(=O)OCC(=O)NC(=O)Nc1ccccc1F
REMARK SMILES IDX 12 1 13 2 14 3 19 4 17 5 18 6 16 7 15 8 20 11 25 12 24 13
REMARK SMILES IDX 21 14 23 15 22 16 26 17 10 18 11 19 9 20 8 21 7 22 2 23 6 24
REMARK SMILES IDX 3 25 5 26 4 27 1 28
REMARK H PARENT 19 9 16 10
ROOT
ATOM      1  O   UNL     1      98.245 106.756 108.727  1.00  0.00    -0.452 OA
ENDROOT
BRANCH   1   2
ATOM      2  C   UNL     1      97.221 107.711 108.544  1.00  0.00     0.333 C 
BRANCH   2   3
ATOM      3  C   UNL     1      96.922 108.428 109.843  1.00  0.00     0.266 C 
ATOM      4  N   UNL     1      97.423 106.951 113.138  1.00  0.00    -0.305 N 
ATOM      5  C   UNL     1      97.039 108.001 112.296  1.00  0.00     0.326 C 
ATOM      6  O   UNL     1      96.614 109.101 112.641  1.00  0.00    -0.248 OA
ATOM      7  N   UNL     1      97.207 107.625 110.949  1.00  0.00    -0.275 N 
ATOM      8  O   UNL     1      96.484 109.575 109.885  1.00  0.00    -0.271 OA
ATOM      9  H   UNL     1      97.757 106.102 112.691  1.00  0.00     0.171 HD
ATOM     10  H   UNL     1      97.567 106.690 110.774  1.00  0.00     0.174 HD
BRANCH   4  11
ATOM     11  C   UNL     1      97.407 106.924 114.552  1.00  0.00     0.078 A 
ATOM     12  C   UNL     1      98.355 107.645 115.277  1.00  0.00     0.146 A 
ATOM     13  C   UNL     1      98.338 107.615 116.671  1.00  0.00     0.041 A 
ATOM     14  C   UNL     1      96.440 106.172 115.222  1.00  0.00     0.029 A 
ATOM     15  C   UNL     1      97.371 106.864 117.341  1.00  0.00     0.003 A 
ATOM     16  C   UNL     1      96.422 106.143 116.616  1.00  0.00     0.002 A 
ATOM     17  F   UNL     1      99.289 108.371 114.644  1.00  0.00    -0.205 F 
ENDBRANCH   4  11
ENDBRANCH   2   3
ENDBRANCH   1   2
BRANCH   1  18
ATOM     18  C   UNL     1      99.120 106.601 107.685  1.00  0.00     0.331 C 
ATOM     19  O   UNL     1     100.336 106.696 107.745  1.00  0.00    -0.247 OA
BRANCH  18  20
ATOM     20  C   UNL     1      98.342 106.299 106.463  1.00  0.00     0.094 C 
ATOM     21  C   UNL     1      98.496 107.065 105.375  1.00  0.00     0.016 C 
BRANCH  21  22
ATOM     22  C   UNL     1      97.775 106.872 104.104  1.00  0.00    -0.022 A 
ATOM     23  C   UNL     1      96.412 107.148 103.995  1.00  0.00    -0.044 A 
ATOM     24  C   UNL     1      98.483 106.403 102.998  1.00  0.00     0.008 A 
ATOM     25  C   UNL     1      95.757 106.954 102.778  1.00  0.00     0.004 A 
ATOM     26  C   UNL     1      97.828 106.209 101.782  1.00  0.00     0.001 A 
ATOM     27  C   UNL     1      96.465 106.485 101.672  1.00  0.00     0.000 A 
ATOM     28  C   UNL     1      95.622 107.653 105.159  1.00  0.00     0.045 C 
ENDBRANCH  21  22
ENDBRANCH  18  20
ENDBRANCH   1  18
TORSDOF 6
ENDMDL
MODEL 7
REMARK VINA RESULT:      -7.2      3.011      9.760
REMARK SMILES Cc1ccccc1/C=C/C(=O)OCC(=O)NC(=O)Nc1ccccc1F
REMARK SMILES IDX 12 1 13 2 14 3 19 4 17 5 18 6 16 7 15 8 20 11 25 12 24 13
REMARK SMILES IDX 21 14 23 15 22 16 26 17 10 18 11 19 9 20 8 21 7 22 2 23 6 24
REMARK SMILES IDX 3 25 5 26 4 27 1 28
REMARK H PARENT 19 9 16 10
ROOT
ATOM      1  O   UNL     1      96.321 108.157 109.174  1.00  0.00    -0.452 OA
ENDROOT
BRANCH   1   2
ATOM      2  C   UNL     1      96.677 109.103 110.160  1.00  0.00     0.333 C 
BRANCH   2   3
ATOM      3  C   UNL     1      96.308 108.602 111.540  1.00  0.00     0.266 C 
ATOM      4  N   UNL     1      97.689 105.579 113.037  1.00  0.00    -0.305 N 
ATOM      5  C   UNL     1      96.864 106.709 113.063  1.00  0.00     0.326 C 
ATOM      6  O   UNL     1      96.128 107.060 113.982  1.00  0.00    -0.248 OA
ATOM      7  N   UNL     1      96.987 107.424 111.855  1.00  0.00    -0.275 N 
ATOM      8  O   UNL     1      95.507 109.183 112.266  1.00  0.00    -0.271 OA
ATOM      9  H   UNL     1      98.241 105.431 112.196  1.00  0.00     0.171 HD
ATOM     10  H   UNL     1      97.626 107.046 111.160  1.00  0.00     0.174 HD
BRANCH   4  11
ATOM     11  C   UNL     1      97.856 104.604 114.048  1.00  0.00     0.078 A 
ATOM     12  C   UNL     1      98.600 104.901 115.190  1.00  0.00     0.146 A 
ATOM     13  C   UNL     1      98.764 103.937 116.185  1.00  0.00     0.041 A 
ATOM     14  C   UNL     1      97.276 103.344 113.901  1.00  0.00     0.029 A 
ATOM     15  C   UNL     1      98.183 102.677 116.038  1.00  0.00     0.003 A 
ATOM     16  C   UNL     1      97.439 102.380 114.896  1.00  0.00     0.002 A 
ATOM     17  F   UNL     1      99.162 106.109 115.343  1.00  0.00    -0.205 F 
ENDBRANCH   4  11
ENDBRANCH   2   3
ENDBRANCH   1   2
BRANCH   1  18
ATOM     18  C   UNL     1      97.357 107.536 108.530  1.00  0.00     0.331 C 
ATOM     19  O   UNL     1      98.302 106.974 109.060  1.00  0.00    -0.247 OA
BRANCH  18  20
ATOM     20  C   UNL     1      97.141 107.661 107.071  1.00  0.00     0.094 C 
ATOM     21  C   UNL     1      97.163 106.563 106.303  1.00  0.00     0.016 C 
BRANCH  21  22
ATOM     22  C   UNL     1      96.970 106.558 104.842  1.00  0.00    -0.022 A 
ATOM     23  C   UNL     1      98.055 106.506 103.967  1.00  0.00    -0.044 A 
ATOM     24  C   UNL     1      95.670 106.608 104.339  1.00  0.00     0.008 A 
ATOM     25  C   UNL     1      97.840 106.503 102.589  1.00  0.00     0.004 A 
ATOM     26  C   UNL     1      95.455 106.605 102.960  1.00  0.00     0.001 A 
ATOM     27  C   UNL     1      96.540 106.553 102.086  1.00  0.00     0.000 A 
ATOM     28  C   UNL     1      99.461 106.450 104.471  1.00  0.00     0.045 C 
ENDBRANCH  21  22
ENDBRANCH  18  20
ENDBRANCH   1  18
TORSDOF 6
ENDMDL
MODEL 8
REMARK VINA RESULT:      -7.1     12.996     14.249
REMARK SMILES Cc1ccccc1/C=C/C(=O)OCC(=O)NC(=O)Nc1ccccc1F
REMARK SMILES IDX 12 1 13 2 14 3 19 4 17 5 18 6 16 7 15 8 20 11 25 12 24 13
REMARK SMILES IDX 21 14 23 15 22 16 26 17 10 18 11 19 9 20 8 21 7 22 2 23 6 24
REMARK SMILES IDX 3 25 5 26 4 27 1 28
REMARK H PARENT 19 9 16 10
ROOT
ATOM      1  O   UNL     1     100.685  94.773 111.631  1.00  0.00    -0.452 OA
ENDROOT
BRANCH   1   2
ATOM      2  C   UNL     1      99.956  94.997 110.443  1.00  0.00     0.333 C 
BRANCH   2   3
ATOM      3  C   UNL     1     100.075  93.810 109.512  1.00  0.00     0.266 C 
ATOM      4  N   UNL     1     100.570  94.100 105.912  1.00  0.00    -0.305 N 
ATOM      5  C   UNL     1     100.405  93.353 107.084  1.00  0.00     0.326 C 
ATOM      6  O   UNL     1     100.386  92.128 107.177  1.00  0.00    -0.248 OA
ATOM      7  N   UNL     1     100.259  94.215 108.188  1.00  0.00    -0.275 N 
ATOM      8  O   UNL     1     100.015  92.648 109.903  1.00  0.00    -0.271 OA
ATOM      9  H   UNL     1     100.564  95.112 106.006  1.00  0.00     0.171 HD
ATOM     10  H   UNL     1     100.291  95.214 107.999  1.00  0.00     0.174 HD
BRANCH   4  11
ATOM     11  C   UNL     1     100.748  93.617 104.594  1.00  0.00     0.078 A 
ATOM     12  C   UNL     1     101.986  93.117 104.193  1.00  0.00     0.146 A 
ATOM     13  C   UNL     1     102.159  92.644 102.893  1.00  0.00     0.041 A 
ATOM     14  C   UNL     1      99.681  93.643 103.695  1.00  0.00     0.029 A 
ATOM     15  C   UNL     1     101.092  92.669 101.994  1.00  0.00     0.003 A 
ATOM     16  C   UNL     1      99.853  93.168 102.395  1.00  0.00     0.002 A 
ATOM     17  F   UNL     1     103.018  93.088 105.048  1.00  0.00    -0.205 F 
ENDBRANCH   4  11
ENDBRANCH   2   3
ENDBRANCH   1   2
BRANCH   1  18
ATOM     18  C   UNL     1     101.714  95.641 111.882  1.00  0.00     0.331 C 
ATOM     19  O   UNL     1     101.642  96.860 111.893  1.00  0.00    -0.247 OA
BRANCH  18  20
ATOM     20  C   UNL     1     102.939  94.851 112.138  1.00  0.00     0.094 C 
ATOM     21  C   UNL     1     104.117  95.479 112.261  1.00  0.00     0.016 C 
BRANCH  21  22
ATOM     22  C   UNL     1     105.403  94.805 112.507  1.00  0.00    -0.022 A 
ATOM     23  C   UNL     1     105.926  94.686 113.795  1.00  0.00    -0.044 A 
ATOM     24  C   UNL     1     106.102  94.280 111.420  1.00  0.00     0.008 A 
ATOM     25  C   UNL     1     107.147  94.042 113.995  1.00  0.00     0.004 A 
ATOM     26  C   UNL     1     107.323  93.636 111.620  1.00  0.00     0.001 A 
ATOM     27  C   UNL     1     107.845  93.517 112.908  1.00  0.00     0.000 A 
ATOM     28  C   UNL     1     105.204  95.235 114.983  1.00  0.00     0.045 C 
ENDBRANCH  21  22
ENDBRANCH  18  20
ENDBRANCH   1  18
TORSDOF 6
ENDMDL
MODEL 9
REMARK VINA RESULT:      -7.0     13.096     14.391
REMARK SMILES Cc1ccccc1/C=C/C(=O)OCC(=O)NC(=O)Nc1ccccc1F
REMARK SMILES IDX 12 1 13 2 14 3 19 4 17 5 18 6 16 7 15 8 20 11 25 12 24 13
REMARK SMILES IDX 21 14 23 15 22 16 26 17 10 18 11 19 9 20 8 21 7 22 2 23 6 24
REMARK SMILES IDX 3 25 5 26 4 27 1 28
REMARK H PARENT 19 9 16 10
ROOT
ATOM      1  O   UNL     1     100.853  94.735 111.667  1.00  0.00    -0.452 OA
ENDROOT
BRANCH   1   2
ATOM      2  C   UNL     1     100.103  94.963 110.493  1.00  0.00     0.333 C 
BRANCH   2   3
ATOM      3  C   UNL     1     100.199  93.775 109.560  1.00  0.00     0.266 C 
ATOM      4  N   UNL     1     100.620  94.062 105.950  1.00  0.00    -0.305 N 
ATOM      5  C   UNL     1     100.476  93.316 107.126  1.00  0.00     0.326 C 
ATOM      6  O   UNL     1     100.454  92.092 107.220  1.00  0.00    -0.248 OA
ATOM      7  N   UNL     1     100.356  94.179 108.233  1.00  0.00    -0.275 N 
ATOM      8  O   UNL     1     100.142  92.614 109.952  1.00  0.00    -0.271 OA
ATOM      9  H   UNL     1     100.620  95.074 106.044  1.00  0.00     0.171 HD
ATOM     10  H   UNL     1     100.388  95.178 108.043  1.00  0.00     0.174 HD
BRANCH   4  11
ATOM     11  C   UNL     1     100.768  93.578 104.629  1.00  0.00     0.078 A 
ATOM     12  C   UNL     1     102.009  93.124 104.186  1.00  0.00     0.146 A 
ATOM     13  C   UNL     1     102.153  92.649 102.882  1.00  0.00     0.041 A 
ATOM     14  C   UNL     1      99.669  93.558 103.769  1.00  0.00     0.029 A 
ATOM     15  C   UNL     1     101.054  92.627 102.023  1.00  0.00     0.003 A 
ATOM     16  C   UNL     1      99.812  93.082 102.466  1.00  0.00     0.002 A 
ATOM     17  F   UNL     1     103.072  93.139 105.003  1.00  0.00    -0.205 F 
ENDBRANCH   4  11
ENDBRANCH   2   3
ENDBRANCH   1   2
BRANCH   1  18
ATOM     18  C   UNL     1     101.917  95.572 111.878  1.00  0.00     0.331 C 
ATOM     19  O   UNL     1     101.900  96.791 111.805  1.00  0.00    -0.247 OA
BRANCH  18  20
ATOM     20  C   UNL     1     103.100  94.748 112.209  1.00  0.00     0.094 C 
ATOM     21  C   UNL     1     104.194  95.335 112.714  1.00  0.00     0.016 C 
BRANCH  21  22
ATOM     22  C   UNL     1     105.435  94.626 113.075  1.00  0.00    -0.022 A 
ATOM     23  C   UNL     1     106.506  94.539 112.186  1.00  0.00    -0.044 A 
ATOM     24  C   UNL     1     105.525  94.036 114.335  1.00  0.00     0.008 A 
ATOM     25  C   UNL     1     107.667  93.861 112.556  1.00  0.00     0.004 A 
ATOM     26  C   UNL     1     106.686  93.357 114.706  1.00  0.00     0.001 A 
ATOM     27  C   UNL     1     107.757  93.270 113.817  1.00  0.00     0.000 A 
ATOM     28  C   UNL     1     106.445  95.162 110.828  1.00  0.00     0.045 C 
ENDBRANCH  21  22
ENDBRANCH  18  20
ENDBRANCH   1  18
TORSDOF 6
ENDMDL
MODEL 10
REMARK VINA RESULT:      -6.9     12.435     13.729
REMARK SMILES Cc1ccccc1/C=C/C(=O)OCC(=O)NC(=O)Nc1ccccc1F
REMARK SMILES IDX 12 1 13 2 14 3 19 4 17 5 18 6 16 7 15 8 20 11 25 12 24 13
REMARK SMILES IDX 21 14 23 15 22 16 26 17 10 18 11 19 9 20 8 21 7 22 2 23 6 24
REMARK SMILES IDX 3 25 5 26 4 27 1 28
REMARK H PARENT 19 9 16 10
ROOT
ATOM      1  O   UNL     1     101.012  96.270 111.112  1.00  0.00    -0.452 OA
ENDROOT
BRANCH   1   2
ATOM      2  C   UNL     1      99.671  95.849 111.236  1.00  0.00     0.333 C 
BRANCH   2   3
ATOM      3  C   UNL     1      99.382  94.703 110.290  1.00  0.00     0.266 C 
ATOM      4  N   UNL     1     100.551  94.577 106.840  1.00  0.00    -0.305 N 
ATOM      5  C   UNL     1      99.865  94.042 107.936  1.00  0.00     0.326 C 
ATOM      6  O   UNL     1      99.266  92.970 107.975  1.00  0.00    -0.248 OA
ATOM      7  N   UNL     1      99.951  94.920 109.034  1.00  0.00    -0.275 N 
ATOM      8  O   UNL     1      98.725  93.719 110.618  1.00  0.00    -0.271 OA
ATOM      9  H   UNL     1     100.999  95.479 106.973  1.00  0.00     0.171 HD
ATOM     10  H   UNL     1     100.473  95.782 108.894  1.00  0.00     0.174 HD
BRANCH   4  11
ATOM     11  C   UNL     1     100.703  94.011 105.553  1.00  0.00     0.078 A 
ATOM     12  C   UNL     1      99.661  94.083 104.629  1.00  0.00     0.146 A 
ATOM     13  C   UNL     1      99.813  93.522 103.361  1.00  0.00     0.041 A 
ATOM     14  C   UNL     1     101.899  93.379 105.208  1.00  0.00     0.029 A 
ATOM     15  C   UNL     1     101.009  92.891 103.016  1.00  0.00     0.003 A 
ATOM     16  C   UNL     1     102.052  92.819 103.940  1.00  0.00     0.002 A 
ATOM     17  F   UNL     1      98.508  94.688 104.948  1.00  0.00    -0.205 F 
ENDBRANCH   4  11
ENDBRANCH   2   3
ENDBRANCH   1   2
BRANCH   1  18
ATOM     18  C   UNL     1     101.710  96.418 112.281  1.00  0.00     0.331 C 
ATOM     19  O   UNL     1     101.431  97.175 113.197  1.00  0.00    -0.247 OA
BRANCH  18  20
ATOM     20  C   UNL     1     102.870  95.500 112.251  1.00  0.00     0.094 C 
ATOM     21  C   UNL     1     104.083  95.955 112.593  1.00  0.00     0.016 C 
BRANCH  21  22
ATOM     22  C   UNL     1     105.314  95.144 112.595  1.00  0.00    -0.022 A 
ATOM     23  C   UNL     1     105.986  94.848 113.780  1.00  0.00    -0.044 A 
ATOM     24  C   UNL     1     105.803  94.670 111.378  1.00  0.00     0.008 A 
ATOM     25  C   UNL     1     107.149  94.078 113.749  1.00  0.00     0.004 A 
ATOM     26  C   UNL     1     106.966  93.900 111.346  1.00  0.00     0.001 A 
ATOM     27  C   UNL     1     107.638  93.604 112.531  1.00  0.00     0.000 A 
ATOM     28  C   UNL     1     105.489  95.338 115.102  1.00  0.00     0.045 C 
ENDBRANCH  21  22
ENDBRANCH  18  20
ENDBRANCH   1  18
TORSDOF 6
ENDMDL
MODEL 11
REMARK VINA RESULT:      -6.7     11.859     13.306
REMARK SMILES Cc1ccccc1/C=C/C(=O)OCC(=O)NC(=O)Nc1ccccc1F
REMARK SMILES IDX 12 1 13 2 14 3 19 4 17 5 18 6 16 7 15 8 20 11 25 12 24 13
REMARK SMILES IDX 21 14 23 15 22 16 26 17 10 18 11 19 9 20 8 21 7 22 2 23 6 24
REMARK SMILES IDX 3 25 5 26 4 27 1 28
REMARK H PARENT 19 9 16 10
ROOT
ATOM      1  O   UNL     1     101.589  97.107 113.507  1.00  0.00    -0.452 OA
ENDROOT
BRANCH   1   2
ATOM      2  C   UNL     1     101.817  96.918 112.127  1.00  0.00     0.333 C 
BRANCH   2   3
ATOM      3  C   UNL     1     100.827  95.928 111.552  1.00  0.00     0.266 C 
ATOM      4  N   UNL     1      99.857  95.834 108.040  1.00  0.00    -0.305 N 
ATOM      5  C   UNL     1      99.791  95.364 109.356  1.00  0.00     0.326 C 
ATOM      6  O   UNL     1      99.105  94.433 109.770  1.00  0.00    -0.248 OA
ATOM      7  N   UNL     1     100.645  96.122 110.182  1.00  0.00    -0.275 N 
ATOM      8  O   UNL     1     100.271  95.071 112.234  1.00  0.00    -0.271 OA
ATOM      9  H   UNL     1     100.479  96.617 107.861  1.00  0.00     0.171 HD
ATOM     10  H   UNL     1     101.169  96.871 109.737  1.00  0.00     0.174 HD
BRANCH   4  11
ATOM     11  C   UNL     1      99.158  95.348 106.910  1.00  0.00     0.078 A 
ATOM     12  C   UNL     1      99.828  94.608 105.937  1.00  0.00     0.146 A 
ATOM     13  C   UNL     1      99.136  94.132 104.824  1.00  0.00     0.041 A 
ATOM     14  C   UNL     1      97.795  95.612 106.770  1.00  0.00     0.029 A 
ATOM     15  C   UNL     1      97.773  94.395 104.684  1.00  0.00     0.003 A 
ATOM     16  C   UNL     1      97.102  95.135 105.657  1.00  0.00     0.002 A 
ATOM     17  F   UNL     1     101.138  94.348 106.061  1.00  0.00    -0.205 F 
ENDBRANCH   4  11
ENDBRANCH   2   3
ENDBRANCH   1   2
BRANCH   1  18
ATOM     18  C   UNL     1     102.693  97.051 114.315  1.00  0.00     0.331 C 
ATOM     19  O   UNL     1     102.822  97.599 115.398  1.00  0.00    -0.247 OA
BRANCH  18  20
ATOM     20  C   UNL     1     103.715  96.211 113.652  1.00  0.00     0.094 C 
ATOM     21  C   UNL     1     104.796  95.818 114.340  1.00  0.00     0.016 C 
BRANCH  21  22
ATOM     22  C   UNL     1     105.883  94.989 113.790  1.00  0.00    -0.022 A 
ATOM     23  C   UNL     1     106.701  94.222 114.619  1.00  0.00    -0.044 A 
ATOM     24  C   UNL     1     106.086  94.983 112.410  1.00  0.00     0.008 A 
ATOM     25  C   UNL     1     107.723  93.448 114.069  1.00  0.00     0.004 A 
ATOM     26  C   UNL     1     107.108  94.209 111.859  1.00  0.00     0.001 A 
ATOM     27  C   UNL     1     107.926  93.442 112.689  1.00  0.00     0.000 A 
ATOM     28  C   UNL     1     106.511  94.204 116.102  1.00  0.00     0.045 C 
ENDBRANCH  21  22
ENDBRANCH  18  20
ENDBRANCH   1  18
TORSDOF 6
ENDMDL
MODEL 12
REMARK VINA RESULT:      -6.7     13.633     16.942
REMARK SMILES Cc1ccccc1/C=C/C(=O)OCC(=O)NC(=O)Nc1ccccc1F
REMARK SMILES IDX 12 1 13 2 14 3 19 4 17 5 18 6 16 7 15 8 20 11 25 12 24 13
REMARK SMILES IDX 21 14 23 15 22 16 26 17 10 18 11 19 9 20 8 21 7 22 2 23 6 24
REMARK SMILES IDX 3 25 5 26 4 27 1 28
REMARK H PARENT 19 9 16 10
ROOT
ATOM      1  O   UNL     1     100.269  94.066 109.001  1.00  0.00    -0.452 OA
ENDROOT
BRANCH   1   2
ATOM      2  C   UNL     1      99.717  94.606 110.183  1.00  0.00     0.333 C 
BRANCH   2   3
ATOM      3  C   UNL     1     100.788  95.279 111.014  1.00  0.00     0.266 C 
ATOM      4  N   UNL     1     103.864  93.636 112.076  1.00  0.00    -0.305 N 
ATOM      5  C   UNL     1     103.005  94.740 112.017  1.00  0.00     0.326 C 
ATOM      6  O   UNL     1     103.192  95.843 112.524  1.00  0.00    -0.248 OA
ATOM      7  N   UNL     1     101.854  94.416 111.273  1.00  0.00    -0.275 N 
ATOM      8  O   UNL     1     100.701  96.443 111.395  1.00  0.00    -0.271 OA
ATOM      9  H   UNL     1     103.561  92.792 111.599  1.00  0.00     0.171 HD
ATOM     10  H   UNL     1     101.800  93.472 110.896  1.00  0.00     0.174 HD
BRANCH   4  11
ATOM     11  C   UNL     1     105.118  93.548 112.724  1.00  0.00     0.078 A 
ATOM     12  C   UNL     1     106.286  93.868 112.033  1.00  0.00     0.146 A 
ATOM     13  C   UNL     1     107.522  93.778 112.674  1.00  0.00     0.041 A 
ATOM     14  C   UNL     1     105.185  93.139 114.056  1.00  0.00     0.029 A 
ATOM     15  C   UNL     1     107.589  93.369 114.006  1.00  0.00     0.003 A 
ATOM     16  C   UNL     1     106.420  93.050 114.698  1.00  0.00     0.002 A 
ATOM     17  F   UNL     1     106.235  94.262 110.752  1.00  0.00    -0.205 F 
ENDBRANCH   4  11
ENDBRANCH   2   3
ENDBRANCH   1   2
BRANCH   1  18
ATOM     18  C   UNL     1     100.308  92.700 108.920  1.00  0.00     0.331 C 
ATOM     19  O   UNL     1     100.402  91.925 109.859  1.00  0.00    -0.247 OA
BRANCH  18  20
ATOM     20  C   UNL     1     100.219  92.314 107.494  1.00  0.00     0.094 C 
ATOM     21  C   UNL     1     100.470  93.227 106.546  1.00  0.00     0.016 C 
BRANCH  21  22
ATOM     22  C   UNL     1     100.406  92.969 105.096  1.00  0.00    -0.022 A 
ATOM     23  C   UNL     1     101.541  93.067 104.291  1.00  0.00    -0.044 A 
ATOM     24  C   UNL     1      99.179  92.619 104.533  1.00  0.00     0.008 A 
ATOM     25  C   UNL     1     101.448  92.817 102.922  1.00  0.00     0.004 A 
ATOM     26  C   UNL     1      99.086  92.369 103.164  1.00  0.00     0.001 A 
ATOM     27  C   UNL     1     100.220  92.467 102.358  1.00  0.00     0.000 A 
ATOM     28  C   UNL     1     102.872  93.437 104.861  1.00  0.00     0.045 C 
ENDBRANCH  21  22
ENDBRANCH  18  20
ENDBRANCH   1  18
TORSDOF 6
ENDMDL
MODEL 13
REMARK VINA RESULT:      -6.7     12.043     13.490
REMARK SMILES Cc1ccccc1/C=C/C(=O)OCC(=O)NC(=O)Nc1ccccc1F
REMARK SMILES IDX 12 1 13 2 14 3 19 4 17 5 18 6 16 7 15 8 20 11 25 12 24 13
REMARK SMILES IDX 21 14 23 15 22 16 26 17 10 18 11 19 9 20 8 21 7 22 2 23 6 24
REMARK SMILES IDX 3 25 5 26 4 27 1 28
REMARK H PARENT 19 9 16 10
ROOT
ATOM      1  O   UNL     1     101.485  96.148 113.523  1.00  0.00    -0.452 OA
ENDROOT
BRANCH   1   2
ATOM      2  C   UNL     1     101.430  96.520 112.162  1.00  0.00     0.333 C 
BRANCH   2   3
ATOM      3  C   UNL     1     100.952  95.363 111.311  1.00  0.00     0.266 C 
ATOM      4  N   UNL     1      99.569  95.746 107.960  1.00  0.00    -0.305 N 
ATOM      5  C   UNL     1      99.958  94.972 109.059  1.00  0.00     0.326 C 
ATOM      6  O   UNL     1      99.879  93.750 109.161  1.00  0.00    -0.248 OA
ATOM      7  N   UNL     1     100.472  95.801 110.075  1.00  0.00    -0.275 N 
ATOM      8  O   UNL     1     100.995  94.196 111.690  1.00  0.00    -0.271 OA
ATOM      9  H   UNL     1      99.703  96.750 108.035  1.00  0.00     0.171 HD
ATOM     10  H   UNL     1     100.492  96.800 109.887  1.00  0.00     0.174 HD
BRANCH   4  11
ATOM     11  C   UNL     1      99.007  95.300 106.741  1.00  0.00     0.078 A 
ATOM     12  C   UNL     1      99.812  94.683 105.784  1.00  0.00     0.146 A 
ATOM     13  C   UNL     1      99.256  94.246 104.582  1.00  0.00     0.041 A 
ATOM     14  C   UNL     1      97.645  95.479 106.497  1.00  0.00     0.029 A 
ATOM     15  C   UNL     1      97.894  94.424 104.338  1.00  0.00     0.003 A 
ATOM     16  C   UNL     1      97.088  95.041 105.295  1.00  0.00     0.002 A 
ATOM     17  F   UNL     1     101.122  94.505 106.008  1.00  0.00    -0.205 F 
ENDBRANCH   4  11
ENDBRANCH   2   3
ENDBRANCH   1   2
BRANCH   1  18
ATOM     18  C   UNL     1     102.540  96.641 114.242  1.00  0.00     0.331 C 
ATOM     19  O   UNL     1     102.589  97.726 114.799  1.00  0.00    -0.247 OA
BRANCH  18  20
ATOM     20  C   UNL     1     103.623  95.632 114.232  1.00  0.00     0.094 C 
ATOM     21  C   UNL     1     104.800  95.931 113.663  1.00  0.00     0.016 C 
BRANCH  21  22
ATOM     22  C   UNL     1     105.948  95.011 113.582  1.00  0.00    -0.022 A 
ATOM     23  C   UNL     1     106.553  94.712 112.361  1.00  0.00    -0.044 A 
ATOM     24  C   UNL     1     106.429  94.437 114.758  1.00  0.00     0.008 A 
ATOM     25  C   UNL     1     107.639  93.837 112.316  1.00  0.00     0.004 A 
ATOM     26  C   UNL     1     107.515  93.562 114.713  1.00  0.00     0.001 A 
ATOM     27  C   UNL     1     108.120  93.263 113.493  1.00  0.00     0.000 A 
ATOM     28  C   UNL     1     106.065  95.311 111.081  1.00  0.00     0.045 C 
ENDBRANCH  21  22
ENDBRANCH  18  20
ENDBRANCH   1  18
TORSDOF 6
ENDMDL
MODEL 14
REMARK VINA RESULT:      -6.6     13.110     16.403
REMARK SMILES Cc1ccccc1/C=C/C(=O)OCC(=O)NC(=O)Nc1ccccc1F
REMARK SMILES IDX 12 1 13 2 14 3 19 4 17 5 18 6 16 7 15 8 20 11 25 12 24 13
REMARK SMILES IDX 21 14 23 15 22 16 26 17 10 18 11 19 9 20 8 21 7 22 2 23 6 24
REMARK SMILES IDX 3 25 5 26 4 27 1 28
REMARK H PARENT 19 9 16 10
ROOT
ATOM      1  O   UNL     1      99.876  95.495 109.125  1.00  0.00    -0.452 OA
ENDROOT
BRANCH   1   2
ATOM      2  C   UNL     1     100.109  95.772 110.489  1.00  0.00     0.333 C 
BRANCH   2   3
ATOM      3  C   UNL     1     100.867  94.636 111.143  1.00  0.00     0.266 C 
ATOM      4  N   UNL     1     104.349  94.862 112.195  1.00  0.00    -0.305 N 
ATOM      5  C   UNL     1     103.141  94.171 112.051  1.00  0.00     0.326 C 
ATOM      6  O   UNL     1     102.911  93.014 112.393  1.00  0.00    -0.248 OA
ATOM      7  N   UNL     1     102.181  95.001 111.439  1.00  0.00    -0.275 N 
ATOM      8  O   UNL     1     100.359  93.542 111.371  1.00  0.00    -0.271 OA
ATOM      9  H   UNL     1     104.374  95.820 111.860  1.00  0.00     0.171 HD
ATOM     10  H   UNL     1     102.477  95.944 111.196  1.00  0.00     0.174 HD
BRANCH   4  11
ATOM     11  C   UNL     1     105.557  94.387 112.759  1.00  0.00     0.078 A 
ATOM     12  C   UNL     1     105.704  94.319 114.144  1.00  0.00     0.146 A 
ATOM     13  C   UNL     1     106.896  93.853 114.697  1.00  0.00     0.041 A 
ATOM     14  C   UNL     1     106.603  93.987 111.926  1.00  0.00     0.029 A 
ATOM     15  C   UNL     1     107.941  93.452 113.865  1.00  0.00     0.003 A 
ATOM     16  C   UNL     1     107.795  93.519 112.479  1.00  0.00     0.002 A 
ATOM     17  F   UNL     1     104.706  94.700 114.954  1.00  0.00    -0.205 F 
ENDBRANCH   4  11
ENDBRANCH   2   3
ENDBRANCH   1   2
BRANCH   1  18
ATOM     18  C   UNL     1      98.567  95.499 108.722  1.00  0.00     0.331 C 
ATOM     19  O   UNL     1      97.625  95.972 109.337  1.00  0.00    -0.247 OA
BRANCH  18  20
ATOM     20  C   UNL     1      98.482  94.827 107.406  1.00  0.00     0.094 C 
ATOM     21  C   UNL     1      99.466  94.998 106.512  1.00  0.00     0.016 C 
BRANCH  21  22
ATOM     22  C   UNL     1      99.492  94.391 105.169  1.00  0.00    -0.022 A 
ATOM     23  C   UNL     1     100.608  93.692 104.710  1.00  0.00    -0.044 A 
ATOM     24  C   UNL     1      98.370  94.529 104.351  1.00  0.00     0.008 A 
ATOM     25  C   UNL     1     100.602  93.129 103.434  1.00  0.00     0.004 A 
ATOM     26  C   UNL     1      98.364  93.966 103.075  1.00  0.00     0.001 A 
ATOM     27  C   UNL     1      99.480  93.266 102.616  1.00  0.00     0.000 A 
ATOM     28  C   UNL     1     101.826  93.524 105.560  1.00  0.00     0.045 C 
ENDBRANCH  21  22
ENDBRANCH  18  20
ENDBRANCH   1  18
TORSDOF 6
ENDMDL
MODEL 15
REMARK VINA RESULT:      -6.5     12.308     14.276
REMARK SMILES Cc1ccccc1/C=C/C(=O)OCC(=O)NC(=O)Nc1ccccc1F
REMARK SMILES IDX 12 1 13 2 14 3 19 4 17 5 18 6 16 7 15 8 20 11 25 12 24 13
REMARK SMILES IDX 21 14 23 15 22 16 26 17 10 18 11 19 9 20 8 21 7 22 2 23 6 24
REMARK SMILES IDX 3 25 5 26 4 27 1 28
REMARK H PARENT 19 9 16 10
ROOT
ATOM      1  O   UNL     1     105.917  97.314 112.196  1.00  0.00    -0.452 OA
ENDROOT
BRANCH   1   2
ATOM      2  C   UNL     1     104.780  98.060 111.819  1.00  0.00     0.333 C 
BRANCH   2   3
ATOM      3  C   UNL     1     103.535  97.510 112.483  1.00  0.00     0.266 C 
ATOM      4  N   UNL     1     100.758  96.010 110.661  1.00  0.00    -0.305 N 
ATOM      5  C   UNL     1     101.391  96.414 111.842  1.00  0.00     0.326 C 
ATOM      6  O   UNL     1     100.957  96.296 112.985  1.00  0.00    -0.248 OA
ATOM      7  N   UNL     1     102.638  96.997 111.545  1.00  0.00    -0.275 N 
ATOM      8  O   UNL     1     103.367  97.528 113.699  1.00  0.00    -0.271 OA
ATOM      9  H   UNL     1     101.255  96.179 109.791  1.00  0.00     0.171 HD
ATOM     10  H   UNL     1     102.902  97.045 110.563  1.00  0.00     0.174 HD
BRANCH   4  11
ATOM     11  C   UNL     1      99.496  95.385 110.524  1.00  0.00     0.078 A 
ATOM     12  C   UNL     1      99.344  94.038 110.850  1.00  0.00     0.146 A 
ATOM     13  C   UNL     1      98.099  93.424 110.712  1.00  0.00     0.041 A 
ATOM     14  C   UNL     1      98.404  96.119 110.060  1.00  0.00     0.029 A 
ATOM     15  C   UNL     1      97.006  94.158 110.249  1.00  0.00     0.003 A 
ATOM     16  C   UNL     1      97.159  95.506 109.923  1.00  0.00     0.002 A 
ATOM     17  F   UNL     1     100.386  93.323 111.297  1.00  0.00    -0.205 F 
ENDBRANCH   4  11
ENDBRANCH   2   3
ENDBRANCH   1   2
BRANCH   1  18
ATOM     18  C   UNL     1     106.110  96.130 111.536  1.00  0.00     0.331 C 
ATOM     19  O   UNL     1     106.373  96.000 110.352  1.00  0.00    -0.247 OA
BRANCH  18  20
ATOM     20  C   UNL     1     105.943  95.023 112.505  1.00  0.00     0.094 C 
ATOM     21  C   UNL     1     106.047  95.272 113.818  1.00  0.00     0.016 C 
BRANCH  21  22
ATOM     22  C   UNL     1     105.910  94.257 114.876  1.00  0.00    -0.022 A 
ATOM     23  C   UNL     1     105.673  94.618 116.202  1.00  0.00    -0.044 A 
ATOM     24  C   UNL     1     106.021  92.910 114.530  1.00  0.00     0.008 A 
ATOM     25  C   UNL     1     105.548  93.633 117.183  1.00  0.00     0.004 A 
ATOM     26  C   UNL     1     105.897  91.925 115.510  1.00  0.00     0.001 A 
ATOM     27  C   UNL     1     105.660  92.287 116.836  1.00  0.00     0.000 A 
ATOM     28  C   UNL     1     105.546  96.051 116.609  1.00  0.00     0.045 C 
ENDBRANCH  21  22
ENDBRANCH  18  20
ENDBRANCH   1  18
TORSDOF 6
ENDMDL
