MODEL 1
REMARK VINA RESULT:     -11.0      0.000      0.000
REMARK SMILES Cc1ccc(S(=O)(=O)N2CCC(C(=O)Nc3cccc(Oc4ncccn4)c3)CC2)cc1
REMARK SMILES IDX 9 1 12 2 11 3 29 4 10 5 30 6 6 7 7 8 8 9 5 10 4 11 31 12
REMARK SMILES IDX 3 13 32 14 2 15 1 16 13 17 14 18 15 19 16 21 28 22 17 23
REMARK SMILES IDX 20 24 18 25 19 26 21 27 22 28 23 29 27 30 24 31 26 32 25 33
REMARK H PARENT 15 20
ROOT
ATOM      1  N   UNL     1     114.303 113.807  79.619  1.00  0.00    -0.198 NA
ATOM      2  C   UNL     1     111.870 112.479  80.534  1.00  0.00     0.081 C 
ATOM      3  C   UNL     1     113.224 111.767  80.499  1.00  0.00     0.030 C 
ATOM      4  C   UNL     1     112.027 114.001  80.545  1.00  0.00     0.030 C 
ATOM      5  C   UNL     1     114.172 112.332  79.443  1.00  0.00     0.103 C 
ATOM      6  C   UNL     1     112.992 114.503  79.474  1.00  0.00     0.103 C 
ENDROOT
BRANCH   1   7
ATOM      7  S   UNL     1     115.612 114.530  78.782  1.00  0.00     0.243 S 
ATOM      8  O   UNL     1     115.386 115.956  78.696  1.00  0.00    -0.207 OA
ATOM      9  O   UNL     1     115.904 113.747  77.602  1.00  0.00    -0.207 OA
BRANCH   7  10
ATOM     10  C   UNL     1     116.909 114.258  79.949  1.00  0.00     0.082 A 
ATOM     11  C   UNL     1     117.810 113.210  79.756  1.00  0.00     0.022 A 
ATOM     12  C   UNL     1     117.030 115.087  81.064  1.00  0.00     0.022 A 
ATOM     13  C   UNL     1     118.834 112.993  80.680  1.00  0.00     0.005 A 
ATOM     14  C   UNL     1     118.053 114.870  81.986  1.00  0.00     0.005 A 
ATOM     15  C   UNL     1     118.955 113.823  81.794  1.00  0.00    -0.051 A 
ATOM     16  C   UNL     1     120.049 113.591  82.781  1.00  0.00     0.044 C 
ENDBRANCH   7  10
ENDBRANCH   1   7
BRANCH   2  17
ATOM     17  C   UNL     1     111.001 112.053  79.387  1.00  0.00     0.227 C 
ATOM     18  O   UNL     1     111.322 111.111  78.671  1.00  0.00    -0.274 OA
ATOM     19  N   UNL     1     109.869 112.854  79.292  1.00  0.00    -0.326 N 
ATOM     20  H   UNL     1     109.775 113.630  79.944  1.00  0.00     0.169 HD
BRANCH  19  21
ATOM     21  C   UNL     1     108.824 112.759  78.344  1.00  0.00     0.044 A 
ATOM     22  C   UNL     1     107.735 111.923  78.590  1.00  0.00     0.073 A 
ATOM     23  C   UNL     1     108.883 113.500  77.164  1.00  0.00     0.026 A 
ATOM     24  C   UNL     1     106.703 111.829  77.654  1.00  0.00     0.133 A 
ATOM     25  C   UNL     1     107.852 113.405  76.228  1.00  0.00     0.006 A 
ATOM     26  C   UNL     1     106.763 112.569  76.473  1.00  0.00     0.047 A 
BRANCH  24  27
ATOM     27  O   UNL     1     105.640 111.013  77.894  1.00  0.00    -0.424 OA
BRANCH  27  28
ATOM     28  C   UNL     1     104.542 111.561  78.538  1.00  0.00     0.321 A 
ATOM     29  N   UNL     1     103.835 112.476  77.849  1.00  0.00    -0.203 NA
ATOM     30  N   UNL     1     104.296 111.118  79.786  1.00  0.00    -0.203 NA
ATOM     31  C   UNL     1     102.774 112.987  78.506  1.00  0.00     0.118 A 
ATOM     32  C   UNL     1     103.220 111.671  80.383  1.00  0.00     0.118 A 
ATOM     33  C   UNL     1     102.414 112.619  79.786  1.00  0.00     0.040 A 
ENDBRANCH  27  28
ENDBRANCH  24  27
ENDBRANCH  19  21
ENDBRANCH   2  17
TORSDOF 6
ENDMDL
MODEL 2
REMARK VINA RESULT:     -10.5      2.331      3.992
REMARK SMILES Cc1ccc(S(=O)(=O)N2CCC(C(=O)Nc3cccc(Oc4ncccn4)c3)CC2)cc1
REMARK SMILES IDX 9 1 12 2 11 3 29 4 10 5 30 6 6 7 7 8 8 9 5 10 4 11 31 12
REMARK SMILES IDX 3 13 32 14 2 15 1 16 13 17 14 18 15 19 16 21 28 22 17 23
REMARK SMILES IDX 20 24 18 25 19 26 21 27 22 28 23 29 27 30 24 31 26 32 25 33
REMARK H PARENT 15 20
ROOT
ATOM      1  N   UNL     1     114.341 113.765  79.648  1.00  0.00    -0.198 NA
ATOM      2  C   UNL     1     111.924 112.413  80.570  1.00  0.00     0.081 C 
ATOM      3  C   UNL     1     113.284 111.713  80.525  1.00  0.00     0.030 C 
ATOM      4  C   UNL     1     112.068 113.936  80.586  1.00  0.00     0.030 C 
ATOM      5  C   UNL     1     114.221 112.290  79.467  1.00  0.00     0.103 C 
ATOM      6  C   UNL     1     113.023 114.450  79.513  1.00  0.00     0.103 C 
ENDROOT
BRANCH   1   7
ATOM      7  S   UNL     1     115.640 114.503  78.809  1.00  0.00     0.243 S 
ATOM      8  O   UNL     1     115.403 115.928  78.733  1.00  0.00    -0.207 OA
ATOM      9  O   UNL     1     115.930 113.730  77.622  1.00  0.00    -0.207 OA
BRANCH   7  10
ATOM     10  C   UNL     1     116.946 114.233  79.966  1.00  0.00     0.082 A 
ATOM     11  C   UNL     1     117.879 113.222  79.739  1.00  0.00     0.022 A 
ATOM     12  C   UNL     1     117.042 115.029  81.108  1.00  0.00     0.022 A 
ATOM     13  C   UNL     1     118.910 113.006  80.655  1.00  0.00     0.005 A 
ATOM     14  C   UNL     1     118.071 114.813  82.023  1.00  0.00     0.005 A 
ATOM     15  C   UNL     1     119.006 113.802  81.797  1.00  0.00    -0.051 A 
ATOM     16  C   UNL     1     120.108 113.572  82.775  1.00  0.00     0.044 C 
ENDBRANCH   7  10
ENDBRANCH   1   7
BRANCH   2  17
ATOM     17  C   UNL     1     111.053 111.984  79.425  1.00  0.00     0.227 C 
ATOM     18  O   UNL     1     111.346 111.007  78.744  1.00  0.00    -0.274 OA
ATOM     19  N   UNL     1     109.955 112.826  79.290  1.00  0.00    -0.326 N 
ATOM     20  H   UNL     1     109.884 113.625  79.915  1.00  0.00     0.169 HD
BRANCH  19  21
ATOM     21  C   UNL     1     108.919 112.741  78.331  1.00  0.00     0.044 A 
ATOM     22  C   UNL     1     109.163 113.107  77.007  1.00  0.00     0.073 A 
ATOM     23  C   UNL     1     107.653 112.294  78.709  1.00  0.00     0.026 A 
ATOM     24  C   UNL     1     108.141 113.025  76.061  1.00  0.00     0.133 A 
ATOM     25  C   UNL     1     106.630 112.213  77.763  1.00  0.00     0.006 A 
ATOM     26  C   UNL     1     106.874 112.579  76.439  1.00  0.00     0.047 A 
BRANCH  24  27
ATOM     27  O   UNL     1     108.379 113.382  74.769  1.00  0.00    -0.424 OA
BRANCH  27  28
ATOM     28  C   UNL     1     108.991 112.449  73.947  1.00  0.00     0.321 A 
ATOM     29  N   UNL     1     108.176 111.626  73.260  1.00  0.00    -0.203 NA
ATOM     30  N   UNL     1     110.337 112.465  73.919  1.00  0.00    -0.203 NA
ATOM     31  C   UNL     1     108.805 110.732  72.470  1.00  0.00     0.118 A 
ATOM     32  C   UNL     1     110.900 111.545  73.109  1.00  0.00     0.118 A 
ATOM     33  C   UNL     1     110.178 110.645  72.353  1.00  0.00     0.040 A 
ENDBRANCH  27  28
ENDBRANCH  24  27
ENDBRANCH  19  21
ENDBRANCH   2  17
TORSDOF 6
ENDMDL
MODEL 3
REMARK VINA RESULT:     -10.0      2.632     10.915
REMARK SMILES Cc1ccc(S(=O)(=O)N2CCC(C(=O)Nc3cccc(Oc4ncccn4)c3)CC2)cc1
REMARK SMILES IDX 9 1 12 2 11 3 29 4 10 5 30 6 6 7 7 8 8 9 5 10 4 11 31 12
REMARK SMILES IDX 3 13 32 14 2 15 1 16 13 17 14 18 15 19 16 21 28 22 17 23
REMARK SMILES IDX 20 24 18 25 19 26 21 27 22 28 23 29 27 30 24 31 26 32 25 33
REMARK H PARENT 15 20
ROOT
ATOM      1  N   UNL     1     109.847 112.959  78.317  1.00  0.00    -0.198 NA
ATOM      2  C   UNL     1     111.709 112.798  80.559  1.00  0.00     0.081 C 
ATOM      3  C   UNL     1     110.892 114.058  80.266  1.00  0.00     0.030 C 
ATOM      4  C   UNL     1     111.089 111.556  79.917  1.00  0.00     0.030 C 
ATOM      5  C   UNL     1     110.519 114.203  78.792  1.00  0.00     0.103 C 
ATOM      6  C   UNL     1     110.730 111.765  78.449  1.00  0.00     0.103 C 
ENDROOT
BRANCH   1   7
ATOM      7  S   UNL     1     109.023 113.099  76.821  1.00  0.00     0.243 S 
ATOM      8  O   UNL     1     109.553 112.119  75.897  1.00  0.00    -0.207 OA
ATOM      9  O   UNL     1     108.939 114.497  76.461  1.00  0.00    -0.207 OA
BRANCH   7  10
ATOM     10  C   UNL     1     107.412 112.566  77.308  1.00  0.00     0.082 A 
ATOM     11  C   UNL     1     106.362 112.592  76.389  1.00  0.00     0.022 A 
ATOM     12  C   UNL     1     107.187 112.122  78.611  1.00  0.00     0.022 A 
ATOM     13  C   UNL     1     105.088 112.174  76.774  1.00  0.00     0.005 A 
ATOM     14  C   UNL     1     105.914 111.704  78.996  1.00  0.00     0.005 A 
ATOM     15  C   UNL     1     104.864 111.729  78.077  1.00  0.00    -0.051 A 
ATOM     16  C   UNL     1     103.502 111.282  78.489  1.00  0.00     0.044 C 
ENDBRANCH   7  10
ENDBRANCH   1   7
BRANCH   2  17
ATOM     17  C   UNL     1     113.134 112.958  80.114  1.00  0.00     0.227 C 
ATOM     18  O   UNL     1     113.786 111.991  79.735  1.00  0.00    -0.274 OA
ATOM     19  N   UNL     1     113.541 114.284  80.205  1.00  0.00    -0.326 N 
ATOM     20  H   UNL     1     112.884 114.962  80.585  1.00  0.00     0.169 HD
BRANCH  19  21
ATOM     21  C   UNL     1     114.808 114.820  79.876  1.00  0.00     0.044 A 
ATOM     22  C   UNL     1     115.802 114.908  80.852  1.00  0.00     0.073 A 
ATOM     23  C   UNL     1     115.063 115.263  78.579  1.00  0.00     0.026 A 
ATOM     24  C   UNL     1     117.051 115.438  80.528  1.00  0.00     0.133 A 
ATOM     25  C   UNL     1     116.312 115.793  78.255  1.00  0.00     0.006 A 
ATOM     26  C   UNL     1     117.306 115.881  79.231  1.00  0.00     0.047 A 
BRANCH  24  27
ATOM     27  O   UNL     1     118.021 115.523  81.480  1.00  0.00    -0.424 OA
BRANCH  27  28
ATOM     28  C   UNL     1     118.820 114.410  81.685  1.00  0.00     0.321 A 
ATOM     29  N   UNL     1     119.165 113.707  80.590  1.00  0.00    -0.203 NA
ATOM     30  N   UNL     1     119.171 114.149  82.958  1.00  0.00    -0.203 NA
ATOM     31  C   UNL     1     119.943 112.631  80.826  1.00  0.00     0.118 A 
ATOM     32  C   UNL     1     119.949 113.059  83.122  1.00  0.00     0.118 A 
ATOM     33  C   UNL     1     120.371 112.255  82.083  1.00  0.00     0.040 A 
ENDBRANCH  27  28
ENDBRANCH  24  27
ENDBRANCH  19  21
ENDBRANCH   2  17
TORSDOF 6
ENDMDL
MODEL 4
REMARK VINA RESULT:     -10.0      2.535     10.733
REMARK SMILES Cc1ccc(S(=O)(=O)N2CCC(C(=O)Nc3cccc(Oc4ncccn4)c3)CC2)cc1
REMARK SMILES IDX 9 1 12 2 11 3 29 4 10 5 30 6 6 7 7 8 8 9 5 10 4 11 31 12
REMARK SMILES IDX 3 13 32 14 2 15 1 16 13 17 14 18 15 19 16 21 28 22 17 23
REMARK SMILES IDX 20 24 18 25 19 26 21 27 22 28 23 29 27 30 24 31 26 32 25 33
REMARK H PARENT 15 20
ROOT
ATOM      1  N   UNL     1     108.697 112.074  78.051  1.00  0.00    -0.198 NA
ATOM      2  C   UNL     1     110.836 112.923  79.845  1.00  0.00     0.081 C 
ATOM      3  C   UNL     1     109.676 113.845  79.466  1.00  0.00     0.030 C 
ATOM      4  C   UNL     1     110.489 111.450  79.624  1.00  0.00     0.030 C 
ATOM      5  C   UNL     1     109.069 113.517  78.103  1.00  0.00     0.103 C 
ATOM      6  C   UNL     1     109.879 111.187  78.250  1.00  0.00     0.103 C 
ENDROOT
BRANCH   1   7
ATOM      7  S   UNL     1     107.658 111.633  76.761  1.00  0.00     0.243 S 
ATOM      8  O   UNL     1     107.775 110.210  76.528  1.00  0.00    -0.207 OA
ATOM      9  O   UNL     1     107.821 112.582  75.682  1.00  0.00    -0.207 OA
BRANCH   7  10
ATOM     10  C   UNL     1     106.090 111.930  77.514  1.00  0.00     0.082 A 
ATOM     11  C   UNL     1     105.025 112.400  76.745  1.00  0.00     0.022 A 
ATOM     12  C   UNL     1     105.915 111.698  78.879  1.00  0.00     0.022 A 
ATOM     13  C   UNL     1     103.786 112.638  77.340  1.00  0.00     0.005 A 
ATOM     14  C   UNL     1     104.677 111.936  79.474  1.00  0.00     0.005 A 
ATOM     15  C   UNL     1     103.612 112.406  78.705  1.00  0.00    -0.051 A 
ATOM     16  C   UNL     1     102.287 112.660  79.341  1.00  0.00     0.044 C 
ENDBRANCH   7  10
ENDBRANCH   1   7
BRANCH   2  17
ATOM     17  C   UNL     1     112.085 113.282  79.094  1.00  0.00     0.227 C 
ATOM     18  O   UNL     1     112.683 112.442  78.430  1.00  0.00    -0.274 OA
ATOM     19  N   UNL     1     112.412 114.620  79.277  1.00  0.00    -0.326 N 
ATOM     20  H   UNL     1     111.830 115.175  79.901  1.00  0.00     0.169 HD
BRANCH  19  21
ATOM     21  C   UNL     1     113.513 115.321  78.732  1.00  0.00     0.044 A 
ATOM     22  C   UNL     1     114.796 114.780  78.821  1.00  0.00     0.073 A 
ATOM     23  C   UNL     1     113.317 116.551  78.106  1.00  0.00     0.026 A 
ATOM     24  C   UNL     1     115.883 115.471  78.284  1.00  0.00     0.133 A 
ATOM     25  C   UNL     1     114.404 117.243  77.569  1.00  0.00     0.006 A 
ATOM     26  C   UNL     1     115.687 116.702  77.659  1.00  0.00     0.047 A 
BRANCH  24  27
ATOM     27  O   UNL     1     117.135 114.943  78.370  1.00  0.00    -0.424 OA
BRANCH  27  28
ATOM     28  C   UNL     1     117.631 114.668  79.634  1.00  0.00     0.321 A 
ATOM     29  N   UNL     1     117.579 115.671  80.532  1.00  0.00    -0.203 NA
ATOM     30  N   UNL     1     118.111 113.426  79.834  1.00  0.00    -0.203 NA
ATOM     31  C   UNL     1     118.070 115.368  81.751  1.00  0.00     0.118 A 
ATOM     32  C   UNL     1     118.585 113.193  81.075  1.00  0.00     0.118 A 
ATOM     33  C   UNL     1     118.590 114.134  82.084  1.00  0.00     0.040 A 
ENDBRANCH  27  28
ENDBRANCH  24  27
ENDBRANCH  19  21
ENDBRANCH   2  17
TORSDOF 6
ENDMDL
MODEL 5
REMARK VINA RESULT:     -10.0      1.752      2.363
REMARK SMILES Cc1ccc(S(=O)(=O)N2CCC(C(=O)Nc3cccc(Oc4ncccn4)c3)CC2)cc1
REMARK SMILES IDX 9 1 12 2 11 3 29 4 10 5 30 6 6 7 7 8 8 9 5 10 4 11 31 12
REMARK SMILES IDX 3 13 32 14 2 15 1 16 13 17 14 18 15 19 16 21 28 22 17 23
REMARK SMILES IDX 20 24 18 25 19 26 21 27 22 28 23 29 27 30 24 31 26 32 25 33
REMARK H PARENT 15 20
ROOT
ATOM      1  N   UNL     1     112.539 113.820  79.386  1.00  0.00    -0.198 NA
ATOM      2  C   UNL     1     110.204 115.568  79.300  1.00  0.00     0.081 C 
ATOM      3  C   UNL     1     110.365 114.475  80.357  1.00  0.00     0.030 C 
ATOM      4  C   UNL     1     111.545 115.961  78.678  1.00  0.00     0.030 C 
ATOM      5  C   UNL     1     111.231 113.308  79.887  1.00  0.00     0.103 C 
ATOM      6  C   UNL     1     112.368 114.754  78.237  1.00  0.00     0.103 C 
ENDROOT
BRANCH   1   7
ATOM      7  S   UNL     1     113.763 112.636  79.192  1.00  0.00     0.243 S 
ATOM      8  O   UNL     1     114.058 112.490  77.783  1.00  0.00    -0.207 OA
ATOM      9  O   UNL     1     113.439 111.489  80.011  1.00  0.00    -0.207 OA
BRANCH   7  10
ATOM     10  C   UNL     1     115.123 113.474  79.944  1.00  0.00     0.082 A 
ATOM     11  C   UNL     1     116.388 112.888  79.944  1.00  0.00     0.022 A 
ATOM     12  C   UNL     1     114.931 114.721  80.541  1.00  0.00     0.022 A 
ATOM     13  C   UNL     1     117.463 113.548  80.541  1.00  0.00     0.005 A 
ATOM     14  C   UNL     1     116.005 115.381  81.137  1.00  0.00     0.005 A 
ATOM     15  C   UNL     1     117.271 114.795  81.137  1.00  0.00    -0.051 A 
ATOM     16  C   UNL     1     118.420 115.501  81.775  1.00  0.00     0.044 C 
ENDBRANCH   7  10
ENDBRANCH   1   7
BRANCH   2  17
ATOM     17  C   UNL     1     109.235 115.154  78.231  1.00  0.00     0.227 C 
ATOM     18  O   UNL     1     108.704 115.988  77.505  1.00  0.00    -0.274 OA
ATOM     19  N   UNL     1     109.064 113.775  78.218  1.00  0.00    -0.326 N 
ATOM     20  H   UNL     1     109.549 113.225  78.924  1.00  0.00     0.169 HD
BRANCH  19  21
ATOM     21  C   UNL     1     108.236 113.017  77.358  1.00  0.00     0.044 A 
ATOM     22  C   UNL     1     107.172 112.283  77.883  1.00  0.00     0.073 A 
ATOM     23  C   UNL     1     108.482 113.003  75.985  1.00  0.00     0.026 A 
ATOM     24  C   UNL     1     106.355 111.535  77.034  1.00  0.00     0.133 A 
ATOM     25  C   UNL     1     107.666 112.254  75.137  1.00  0.00     0.006 A 
ATOM     26  C   UNL     1     106.602 111.520  75.662  1.00  0.00     0.047 A 
BRANCH  24  27
ATOM     27  O   UNL     1     105.316 110.818  77.546  1.00  0.00    -0.424 OA
BRANCH  27  28
ATOM     28  C   UNL     1     104.384 111.497  78.315  1.00  0.00     0.321 A 
ATOM     29  N   UNL     1     103.676 112.458  77.692  1.00  0.00    -0.203 NA
ATOM     30  N   UNL     1     104.283 111.123  79.604  1.00  0.00    -0.203 NA
ATOM     31  C   UNL     1     102.778 113.096  78.469  1.00  0.00     0.118 A 
ATOM     32  C   UNL     1     103.366 111.803  80.323  1.00  0.00     0.118 A 
ATOM     33  C   UNL     1     102.577 112.809  79.804  1.00  0.00     0.040 A 
ENDBRANCH  27  28
ENDBRANCH  24  27
ENDBRANCH  19  21
ENDBRANCH   2  17
TORSDOF 6
ENDMDL
MODEL 6
REMARK VINA RESULT:     -10.0      2.310      3.745
REMARK SMILES Cc1ccc(S(=O)(=O)N2CCC(C(=O)Nc3cccc(Oc4ncccn4)c3)CC2)cc1
REMARK SMILES IDX 9 1 12 2 11 3 29 4 10 5 30 6 6 7 7 8 8 9 5 10 4 11 31 12
REMARK SMILES IDX 3 13 32 14 2 15 1 16 13 17 14 18 15 19 16 21 28 22 17 23
REMARK SMILES IDX 20 24 18 25 19 26 21 27 22 28 23 29 27 30 24 31 26 32 25 33
REMARK H PARENT 15 20
ROOT
ATOM      1  N   UNL     1     114.177 113.737  79.455  1.00  0.00    -0.198 NA
ATOM      2  C   UNL     1     111.603 112.796  80.460  1.00  0.00     0.081 C 
ATOM      3  C   UNL     1     112.649 111.844  79.879  1.00  0.00     0.030 C 
ATOM      4  C   UNL     1     112.226 114.118  80.912  1.00  0.00     0.030 C 
ATOM      5  C   UNL     1     113.570 112.512  78.860  1.00  0.00     0.103 C 
ATOM      6  C   UNL     1     113.141 114.732  79.857  1.00  0.00     0.103 C 
ENDROOT
BRANCH   1   7
ATOM      7  S   UNL     1     115.517 114.379  78.602  1.00  0.00     0.243 S 
ATOM      8  O   UNL     1     115.310 115.796  78.395  1.00  0.00    -0.207 OA
ATOM      9  O   UNL     1     115.834 113.501  77.497  1.00  0.00    -0.207 OA
BRANCH   7  10
ATOM     10  C   UNL     1     116.778 114.190  79.824  1.00  0.00     0.082 A 
ATOM     11  C   UNL     1     117.716 113.165  79.704  1.00  0.00     0.022 A 
ATOM     12  C   UNL     1     116.833 115.064  80.911  1.00  0.00     0.022 A 
ATOM     13  C   UNL     1     118.711 113.014  80.671  1.00  0.00     0.005 A 
ATOM     14  C   UNL     1     117.826 114.912  81.877  1.00  0.00     0.005 A 
ATOM     15  C   UNL     1     118.766 113.888  81.757  1.00  0.00    -0.051 A 
ATOM     16  C   UNL     1     119.829 113.726  82.791  1.00  0.00     0.044 C 
ENDBRANCH   7  10
ENDBRANCH   1   7
BRANCH   2  17
ATOM     17  C   UNL     1     110.495 113.051  79.480  1.00  0.00     0.227 C 
ATOM     18  O   UNL     1     110.245 114.189  79.095  1.00  0.00    -0.274 OA
ATOM     19  N   UNL     1     109.858 111.868  79.126  1.00  0.00    -0.326 N 
ATOM     20  H   UNL     1     110.162 111.007  79.575  1.00  0.00     0.169 HD
BRANCH  19  21
ATOM     21  C   UNL     1     108.775 111.707  78.232  1.00  0.00     0.044 A 
ATOM     22  C   UNL     1     109.009 111.299  76.918  1.00  0.00     0.073 A 
ATOM     23  C   UNL     1     107.472 111.958  78.661  1.00  0.00     0.026 A 
ATOM     24  C   UNL     1     107.941 111.141  76.035  1.00  0.00     0.133 A 
ATOM     25  C   UNL     1     106.403 111.801  77.778  1.00  0.00     0.006 A 
ATOM     26  C   UNL     1     106.638 111.393  76.465  1.00  0.00     0.047 A 
BRANCH  24  27
ATOM     27  O   UNL     1     108.170 110.742  74.754  1.00  0.00    -0.424 OA
BRANCH  27  28
ATOM     28  C   UNL     1     108.187 111.717  73.770  1.00  0.00     0.321 A 
ATOM     29  N   UNL     1     107.206 111.662  72.850  1.00  0.00    -0.203 NA
ATOM     30  N   UNL     1     109.183 112.621  73.839  1.00  0.00    -0.203 NA
ATOM     31  C   UNL     1     107.254 112.626  71.908  1.00  0.00     0.118 A 
ATOM     32  C   UNL     1     109.170 113.556  72.866  1.00  0.00     0.118 A 
ATOM     33  C   UNL     1     108.221 113.609  71.866  1.00  0.00     0.040 A 
ENDBRANCH  27  28
ENDBRANCH  24  27
ENDBRANCH  19  21
ENDBRANCH   2  17
TORSDOF 6
ENDMDL
MODEL 7
REMARK VINA RESULT:      -9.9      2.363      2.956
REMARK SMILES Cc1ccc(S(=O)(=O)N2CCC(C(=O)Nc3cccc(Oc4ncccn4)c3)CC2)cc1
REMARK SMILES IDX 9 1 12 2 11 3 29 4 10 5 30 6 6 7 7 8 8 9 5 10 4 11 31 12
REMARK SMILES IDX 3 13 32 14 2 15 1 16 13 17 14 18 15 19 16 21 28 22 17 23
REMARK SMILES IDX 20 24 18 25 19 26 21 27 22 28 23 29 27 30 24 31 26 32 25 33
REMARK H PARENT 15 20
ROOT
ATOM      1  N   UNL     1     114.728 114.020  79.182  1.00  0.00    -0.198 NA
ATOM      2  C   UNL     1     112.110 112.814  79.639  1.00  0.00     0.081 C 
ATOM      3  C   UNL     1     113.381 111.975  79.495  1.00  0.00     0.030 C 
ATOM      4  C   UNL     1     112.424 114.261  80.024  1.00  0.00     0.030 C 
ATOM      5  C   UNL     1     114.456 112.654  78.650  1.00  0.00     0.103 C 
ATOM      6  C   UNL     1     113.511 114.882  79.151  1.00  0.00     0.103 C 
ENDROOT
BRANCH   1   7
ATOM      7  S   UNL     1     116.163 114.758  78.605  1.00  0.00     0.243 S 
ATOM      8  O   UNL     1     115.988 116.195  78.607  1.00  0.00    -0.207 OA
ATOM      9  O   UNL     1     116.605 114.061  77.418  1.00  0.00    -0.207 OA
BRANCH   7  10
ATOM     10  C   UNL     1     117.269 114.348  79.919  1.00  0.00     0.082 A 
ATOM     11  C   UNL     1     118.102 113.235  79.807  1.00  0.00     0.022 A 
ATOM     12  C   UNL     1     117.307 115.135  81.071  1.00  0.00     0.022 A 
ATOM     13  C   UNL     1     118.974 112.908  80.846  1.00  0.00     0.005 A 
ATOM     14  C   UNL     1     118.178 114.808  82.110  1.00  0.00     0.005 A 
ATOM     15  C   UNL     1     119.012 113.695  81.997  1.00  0.00    -0.051 A 
ATOM     16  C   UNL     1     119.944 113.347  83.108  1.00  0.00     0.044 C 
ENDBRANCH   7  10
ENDBRANCH   1   7
BRANCH   2  17
ATOM     17  C   UNL     1     111.286 112.776  78.385  1.00  0.00     0.227 C 
ATOM     18  O   UNL     1     110.304 113.499  78.256  1.00  0.00    -0.274 OA
ATOM     19  N   UNL     1     111.795 111.851  77.481  1.00  0.00    -0.326 N 
ATOM     20  H   UNL     1     112.598 111.296  77.764  1.00  0.00     0.169 HD
BRANCH  19  21
ATOM     21  C   UNL     1     111.291 111.536  76.197  1.00  0.00     0.044 A 
ATOM     22  C   UNL     1     109.960 111.810  75.884  1.00  0.00     0.073 A 
ATOM     23  C   UNL     1     112.125 110.951  75.244  1.00  0.00     0.026 A 
ATOM     24  C   UNL     1     109.462 111.498  74.618  1.00  0.00     0.133 A 
ATOM     25  C   UNL     1     111.628 110.639  73.979  1.00  0.00     0.006 A 
ATOM     26  C   UNL     1     110.296 110.912  73.666  1.00  0.00     0.047 A 
BRANCH  24  27
ATOM     27  O   UNL     1     108.163 111.766  74.313  1.00  0.00    -0.424 OA
BRANCH  27  28
ATOM     28  C   UNL     1     107.199 111.425  75.248  1.00  0.00     0.321 A 
ATOM     29  N   UNL     1     106.926 110.113  75.380  1.00  0.00    -0.203 NA
ATOM     30  N   UNL     1     106.637 112.442  75.928  1.00  0.00    -0.203 NA
ATOM     31  C   UNL     1     105.984 109.817  76.298  1.00  0.00     0.118 A 
ATOM     32  C   UNL     1     105.704 112.074  76.831  1.00  0.00     0.118 A 
ATOM     33  C   UNL     1     105.333 110.765  77.061  1.00  0.00     0.040 A 
ENDBRANCH  27  28
ENDBRANCH  24  27
ENDBRANCH  19  21
ENDBRANCH   2  17
TORSDOF 6
ENDMDL
MODEL 8
REMARK VINA RESULT:      -9.8      2.751      4.506
REMARK SMILES Cc1ccc(S(=O)(=O)N2CCC(C(=O)Nc3cccc(Oc4ncccn4)c3)CC2)cc1
REMARK SMILES IDX 9 1 12 2 11 3 29 4 10 5 30 6 6 7 7 8 8 9 5 10 4 11 31 12
REMARK SMILES IDX 3 13 32 14 2 15 1 16 13 17 14 18 15 19 16 21 28 22 17 23
REMARK SMILES IDX 20 24 18 25 19 26 21 27 22 28 23 29 27 30 24 31 26 32 25 33
REMARK H PARENT 15 20
ROOT
ATOM      1  N   UNL     1     112.469 113.833  79.402  1.00  0.00    -0.198 NA
ATOM      2  C   UNL     1     110.144 115.598  79.366  1.00  0.00     0.081 C 
ATOM      3  C   UNL     1     110.404 114.615  80.509  1.00  0.00     0.030 C 
ATOM      4  C   UNL     1     111.419 115.905  78.578  1.00  0.00     0.030 C 
ATOM      5  C   UNL     1     111.215 113.394  80.078  1.00  0.00     0.103 C 
ATOM      6  C   UNL     1     112.189 114.648  78.185  1.00  0.00     0.103 C 
ENDROOT
BRANCH   1   7
ATOM      7  S   UNL     1     113.662 112.618  79.212  1.00  0.00     0.243 S 
ATOM      8  O   UNL     1     113.929 112.436  77.802  1.00  0.00    -0.207 OA
ATOM      9  O   UNL     1     113.327 111.495  80.060  1.00  0.00    -0.207 OA
BRANCH   7  10
ATOM     10  C   UNL     1     115.053 113.440  79.924  1.00  0.00     0.082 A 
ATOM     11  C   UNL     1     116.307 112.828  79.908  1.00  0.00     0.022 A 
ATOM     12  C   UNL     1     114.899 114.699  80.504  1.00  0.00     0.022 A 
ATOM     13  C   UNL     1     117.406 113.475  80.473  1.00  0.00     0.005 A 
ATOM     14  C   UNL     1     115.997 115.346  81.069  1.00  0.00     0.005 A 
ATOM     15  C   UNL     1     117.251 114.734  81.053  1.00  0.00    -0.051 A 
ATOM     16  C   UNL     1     118.426 115.427  81.656  1.00  0.00     0.044 C 
ENDBRANCH   7  10
ENDBRANCH   1   7
BRANCH   2  17
ATOM     17  C   UNL     1     109.073 115.090  78.444  1.00  0.00     0.227 C 
ATOM     18  O   UNL     1     108.572 115.824  77.598  1.00  0.00    -0.274 OA
ATOM     19  N   UNL     1     108.778 113.758  78.706  1.00  0.00    -0.326 N 
ATOM     20  H   UNL     1     109.258 113.304  79.480  1.00  0.00     0.169 HD
BRANCH  19  21
ATOM     21  C   UNL     1     107.829 112.941  78.048  1.00  0.00     0.044 A 
ATOM     22  C   UNL     1     107.773 112.922  76.654  1.00  0.00     0.073 A 
ATOM     23  C   UNL     1     106.948 112.156  78.792  1.00  0.00     0.026 A 
ATOM     24  C   UNL     1     106.837 112.117  76.005  1.00  0.00     0.133 A 
ATOM     25  C   UNL     1     106.011 111.352  78.143  1.00  0.00     0.006 A 
ATOM     26  C   UNL     1     105.955 111.332  76.749  1.00  0.00     0.047 A 
BRANCH  24  27
ATOM     27  O   UNL     1     106.783 112.097  74.645  1.00  0.00    -0.424 OA
BRANCH  27  28
ATOM     28  C   UNL     1     107.983 112.116  73.953  1.00  0.00     0.321 A 
ATOM     29  N   UNL     1     108.779 111.040  74.100  1.00  0.00    -0.203 NA
ATOM     30  N   UNL     1     108.227 113.208  73.204  1.00  0.00    -0.203 NA
ATOM     31  C   UNL     1     109.938 111.092  73.413  1.00  0.00     0.118 A 
ATOM     32  C   UNL     1     109.404 113.193  72.543  1.00  0.00     0.118 A 
ATOM     33  C   UNL     1     110.307 112.152  72.610  1.00  0.00     0.040 A 
ENDBRANCH  27  28
ENDBRANCH  24  27
ENDBRANCH  19  21
ENDBRANCH   2  17
TORSDOF 6
ENDMDL
MODEL 9
REMARK VINA RESULT:      -9.8      2.549     11.183
REMARK SMILES Cc1ccc(S(=O)(=O)N2CCC(C(=O)Nc3cccc(Oc4ncccn4)c3)CC2)cc1
REMARK SMILES IDX 9 1 12 2 11 3 29 4 10 5 30 6 6 7 7 8 8 9 5 10 4 11 31 12
REMARK SMILES IDX 3 13 32 14 2 15 1 16 13 17 14 18 15 19 16 21 28 22 17 23
REMARK SMILES IDX 20 24 18 25 19 26 21 27 22 28 23 29 27 30 24 31 26 32 25 33
REMARK H PARENT 15 20
ROOT
ATOM      1  N   UNL     1     109.229 112.656  78.245  1.00  0.00    -0.198 NA
ATOM      2  C   UNL     1     111.060 113.930  80.127  1.00  0.00     0.081 C 
ATOM      3  C   UNL     1     109.884 114.680  79.499  1.00  0.00     0.030 C 
ATOM      4  C   UNL     1     110.862 112.414  80.075  1.00  0.00     0.030 C 
ATOM      5  C   UNL     1     109.475 114.123  78.137  1.00  0.00     0.103 C 
ATOM      6  C   UNL     1     110.445 111.919  78.693  1.00  0.00     0.103 C 
ENDROOT
BRANCH   1   7
ATOM      7  S   UNL     1     108.393 111.955  76.923  1.00  0.00     0.243 S 
ATOM      8  O   UNL     1     108.749 110.556  76.828  1.00  0.00    -0.207 OA
ATOM      9  O   UNL     1     108.504 112.834  75.780  1.00  0.00    -0.207 OA
BRANCH   7  10
ATOM     10  C   UNL     1     106.735 112.050  77.523  1.00  0.00     0.082 A 
ATOM     11  C   UNL     1     106.467 111.802  78.870  1.00  0.00     0.022 A 
ATOM     12  C   UNL     1     105.694 112.370  76.651  1.00  0.00     0.022 A 
ATOM     13  C   UNL     1     105.156 111.874  79.344  1.00  0.00     0.005 A 
ATOM     14  C   UNL     1     104.385 112.442  77.125  1.00  0.00     0.005 A 
ATOM     15  C   UNL     1     104.116 112.194  78.472  1.00  0.00    -0.051 A 
ATOM     16  C   UNL     1     102.715 112.272  78.979  1.00  0.00     0.044 C 
ENDBRANCH   7  10
ENDBRANCH   1   7
BRANCH   2  17
ATOM     17  C   UNL     1     112.358 114.307  79.474  1.00  0.00     0.227 C 
ATOM     18  O   UNL     1     112.423 115.265  78.710  1.00  0.00    -0.274 OA
ATOM     19  N   UNL     1     113.380 113.446  79.857  1.00  0.00    -0.326 N 
ATOM     20  H   UNL     1     113.146 112.668  80.468  1.00  0.00     0.169 HD
BRANCH  19  21
ATOM     21  C   UNL     1     114.735 113.484  79.452  1.00  0.00     0.044 A 
ATOM     22  C   UNL     1     115.659 114.233  80.180  1.00  0.00     0.073 A 
ATOM     23  C   UNL     1     115.147 112.774  78.325  1.00  0.00     0.026 A 
ATOM     24  C   UNL     1     116.995 114.272  79.781  1.00  0.00     0.133 A 
ATOM     25  C   UNL     1     116.482 112.813  77.924  1.00  0.00     0.006 A 
ATOM     26  C   UNL     1     117.407 113.562  78.653  1.00  0.00     0.047 A 
BRANCH  24  27
ATOM     27  O   UNL     1     117.898 115.002  80.492  1.00  0.00    -0.424 OA
BRANCH  27  28
ATOM     28  C   UNL     1     118.893 114.314  81.167  1.00  0.00     0.321 A 
ATOM     29  N   UNL     1     120.072 114.184  80.530  1.00  0.00    -0.203 NA
ATOM     30  N   UNL     1     118.578 113.849  82.390  1.00  0.00    -0.203 NA
ATOM     31  C   UNL     1     121.018 113.511  81.216  1.00  0.00     0.118 A 
ATOM     32  C   UNL     1     119.570 113.185  83.019  1.00  0.00     0.118 A 
ATOM     33  C   UNL     1     120.822 112.983  82.476  1.00  0.00     0.040 A 
ENDBRANCH  27  28
ENDBRANCH  24  27
ENDBRANCH  19  21
ENDBRANCH   2  17
TORSDOF 6
ENDMDL
MODEL 10
REMARK VINA RESULT:      -9.5      2.464     10.698
REMARK SMILES Cc1ccc(S(=O)(=O)N2CCC(C(=O)Nc3cccc(Oc4ncccn4)c3)CC2)cc1
REMARK SMILES IDX 9 1 12 2 11 3 29 4 10 5 30 6 6 7 7 8 8 9 5 10 4 11 31 12
REMARK SMILES IDX 3 13 32 14 2 15 1 16 13 17 14 18 15 19 16 21 28 22 17 23
REMARK SMILES IDX 20 24 18 25 19 26 21 27 22 28 23 29 27 30 24 31 26 32 25 33
REMARK H PARENT 15 20
ROOT
ATOM      1  N   UNL     1     108.432 113.658  77.130  1.00  0.00    -0.198 NA
ATOM      2  C   UNL     1     109.975 115.899  78.186  1.00  0.00     0.081 C 
ATOM      3  C   UNL     1     109.563 115.814  76.716  1.00  0.00     0.030 C 
ATOM      4  C   UNL     1     109.097 115.017  79.076  1.00  0.00     0.030 C 
ATOM      5  C   UNL     1     109.375 114.379  76.227  1.00  0.00     0.103 C 
ATOM      6  C   UNL     1     108.939 113.600  78.531  1.00  0.00     0.103 C 
ENDROOT
BRANCH   1   7
ATOM      7  S   UNL     1     107.812 112.184  76.514  1.00  0.00     0.243 S 
ATOM      8  O   UNL     1     108.614 111.089  77.014  1.00  0.00    -0.207 OA
ATOM      9  O   UNL     1     107.556 112.338  75.099  1.00  0.00    -0.207 OA
BRANCH   7  10
ATOM     10  C   UNL     1     106.255 112.136  77.346  1.00  0.00     0.082 A 
ATOM     11  C   UNL     1     105.097 112.539  76.680  1.00  0.00     0.022 A 
ATOM     12  C   UNL     1     106.183 111.698  78.669  1.00  0.00     0.022 A 
ATOM     13  C   UNL     1     103.866 112.504  77.338  1.00  0.00     0.005 A 
ATOM     14  C   UNL     1     104.954 111.663  79.325  1.00  0.00     0.005 A 
ATOM     15  C   UNL     1     103.795 112.065  78.660  1.00  0.00    -0.051 A 
ATOM     16  C   UNL     1     102.480 112.027  79.363  1.00  0.00     0.044 C 
ENDBRANCH   7  10
ENDBRANCH   1   7
BRANCH   2  17
ATOM     17  C   UNL     1     111.423 115.544  78.368  1.00  0.00     0.227 C 
ATOM     18  O   UNL     1     112.308 116.315  78.014  1.00  0.00    -0.274 OA
ATOM     19  N   UNL     1     111.560 114.291  78.954  1.00  0.00    -0.326 N 
ATOM     20  H   UNL     1     110.717 113.756  79.146  1.00  0.00     0.169 HD
BRANCH  19  21
ATOM     21  C   UNL     1     112.762 113.621  79.280  1.00  0.00     0.044 A 
ATOM     22  C   UNL     1     113.991 114.233  79.033  1.00  0.00     0.073 A 
ATOM     23  C   UNL     1     112.720 112.347  79.847  1.00  0.00     0.026 A 
ATOM     24  C   UNL     1     115.177 113.572  79.354  1.00  0.00     0.133 A 
ATOM     25  C   UNL     1     113.906 111.685  80.167  1.00  0.00     0.006 A 
ATOM     26  C   UNL     1     115.135 112.298  79.920  1.00  0.00     0.047 A 
BRANCH  24  27
ATOM     27  O   UNL     1     116.376 114.170  79.113  1.00  0.00    -0.424 OA
BRANCH  27  28
ATOM     28  C   UNL     1     117.340 114.101  80.106  1.00  0.00     0.321 A 
ATOM     29  N   UNL     1     118.297 113.167  79.951  1.00  0.00    -0.203 NA
ATOM     30  N   UNL     1     117.220 114.977  81.122  1.00  0.00    -0.203 NA
ATOM     31  C   UNL     1     119.219 113.128  80.935  1.00  0.00     0.118 A 
ATOM     32  C   UNL     1     118.175 114.882  82.070  1.00  0.00     0.118 A 
ATOM     33  C   UNL     1     119.209 113.969  82.029  1.00  0.00     0.040 A 
ENDBRANCH  27  28
ENDBRANCH  24  27
ENDBRANCH  19  21
ENDBRANCH   2  17
TORSDOF 6
ENDMDL
MODEL 11
REMARK VINA RESULT:      -9.5      2.458     10.698
REMARK SMILES Cc1ccc(S(=O)(=O)N2CCC(C(=O)Nc3cccc(Oc4ncccn4)c3)CC2)cc1
REMARK SMILES IDX 9 1 12 2 11 3 29 4 10 5 30 6 6 7 7 8 8 9 5 10 4 11 31 12
REMARK SMILES IDX 3 13 32 14 2 15 1 16 13 17 14 18 15 19 16 21 28 22 17 23
REMARK SMILES IDX 20 24 18 25 19 26 21 27 22 28 23 29 27 30 24 31 26 32 25 33
REMARK H PARENT 15 20
ROOT
ATOM      1  N   UNL     1     108.410 113.635  77.155  1.00  0.00    -0.198 NA
ATOM      2  C   UNL     1     109.954 115.896  78.166  1.00  0.00     0.081 C 
ATOM      3  C   UNL     1     109.540 115.783  76.698  1.00  0.00     0.030 C 
ATOM      4  C   UNL     1     109.078 115.031  79.073  1.00  0.00     0.030 C 
ATOM      5  C   UNL     1     109.351 114.339  76.237  1.00  0.00     0.103 C 
ATOM      6  C   UNL     1     108.920 113.604  78.556  1.00  0.00     0.103 C 
ENDROOT
BRANCH   1   7
ATOM      7  S   UNL     1     107.790 112.149  76.568  1.00  0.00     0.243 S 
ATOM      8  O   UNL     1     108.582 111.063  77.103  1.00  0.00    -0.207 OA
ATOM      9  O   UNL     1     107.550 112.270  75.147  1.00  0.00    -0.207 OA
BRANCH   7  10
ATOM     10  C   UNL     1     106.224 112.127  77.384  1.00  0.00     0.082 A 
ATOM     11  C   UNL     1     106.134 111.698  78.708  1.00  0.00     0.022 A 
ATOM     12  C   UNL     1     105.076 112.536  76.703  1.00  0.00     0.022 A 
ATOM     13  C   UNL     1     104.897 111.677  79.352  1.00  0.00     0.005 A 
ATOM     14  C   UNL     1     103.840 112.516  77.347  1.00  0.00     0.005 A 
ATOM     15  C   UNL     1     103.750 112.087  78.672  1.00  0.00    -0.051 A 
ATOM     16  C   UNL     1     102.427 112.065  79.360  1.00  0.00     0.044 C 
ENDBRANCH   7  10
ENDBRANCH   1   7
BRANCH   2  17
ATOM     17  C   UNL     1     111.402 115.545  78.352  1.00  0.00     0.227 C 
ATOM     18  O   UNL     1     112.286 116.321  78.005  1.00  0.00    -0.274 OA
ATOM     19  N   UNL     1     111.542 114.291  78.933  1.00  0.00    -0.326 N 
ATOM     20  H   UNL     1     110.699 113.752  79.119  1.00  0.00     0.169 HD
BRANCH  19  21
ATOM     21  C   UNL     1     112.745 113.623  79.261  1.00  0.00     0.044 A 
ATOM     22  C   UNL     1     113.973 114.238  79.015  1.00  0.00     0.073 A 
ATOM     23  C   UNL     1     112.705 112.350  79.828  1.00  0.00     0.026 A 
ATOM     24  C   UNL     1     115.160 113.580  79.338  1.00  0.00     0.133 A 
ATOM     25  C   UNL     1     113.891 111.691  80.150  1.00  0.00     0.006 A 
ATOM     26  C   UNL     1     115.119 112.306  79.905  1.00  0.00     0.047 A 
BRANCH  24  27
ATOM     27  O   UNL     1     116.358 114.181  79.099  1.00  0.00    -0.424 OA
BRANCH  27  28
ATOM     28  C   UNL     1     117.320 114.115  80.094  1.00  0.00     0.321 A 
ATOM     29  N   UNL     1     117.197 114.991  81.108  1.00  0.00    -0.203 NA
ATOM     30  N   UNL     1     118.277 113.180  79.942  1.00  0.00    -0.203 NA
ATOM     31  C   UNL     1     118.150 114.899  82.058  1.00  0.00     0.118 A 
ATOM     32  C   UNL     1     119.197 113.143  80.929  1.00  0.00     0.118 A 
ATOM     33  C   UNL     1     119.183 113.985  82.022  1.00  0.00     0.040 A 
ENDBRANCH  27  28
ENDBRANCH  24  27
ENDBRANCH  19  21
ENDBRANCH   2  17
TORSDOF 6
ENDMDL
MODEL 12
REMARK VINA RESULT:      -9.5      3.196      9.637
REMARK SMILES Cc1ccc(S(=O)(=O)N2CCC(C(=O)Nc3cccc(Oc4ncccn4)c3)CC2)cc1
REMARK SMILES IDX 9 1 12 2 11 3 29 4 10 5 30 6 6 7 7 8 8 9 5 10 4 11 31 12
REMARK SMILES IDX 3 13 32 14 2 15 1 16 13 17 14 18 15 19 16 21 28 22 17 23
REMARK SMILES IDX 20 24 18 25 19 26 21 27 22 28 23 29 27 30 24 31 26 32 25 33
REMARK H PARENT 15 20
ROOT
ATOM      1  N   UNL     1     108.061 113.444  77.310  1.00  0.00    -0.198 NA
ATOM      2  C   UNL     1     109.544 115.629  78.553  1.00  0.00     0.081 C 
ATOM      3  C   UNL     1     109.063 115.692  77.102  1.00  0.00     0.030 C 
ATOM      4  C   UNL     1     108.757 114.604  79.371  1.00  0.00     0.030 C 
ATOM      5  C   UNL     1     108.920 114.314  76.457  1.00  0.00     0.103 C 
ATOM      6  C   UNL     1     108.641 113.253  78.671  1.00  0.00     0.103 C 
ENDROOT
BRANCH   1   7
ATOM      7  S   UNL     1     107.483 112.019  76.553  1.00  0.00     0.243 S 
ATOM      8  O   UNL     1     106.664 112.387  75.419  1.00  0.00    -0.207 OA
ATOM      9  O   UNL     1     106.990 111.116  77.569  1.00  0.00    -0.207 OA
BRANCH   7  10
ATOM     10  C   UNL     1     109.001 111.364  75.933  1.00  0.00     0.082 A 
ATOM     11  C   UNL     1     109.887 110.723  76.798  1.00  0.00     0.022 A 
ATOM     12  C   UNL     1     109.315 111.491  74.579  1.00  0.00     0.022 A 
ATOM     13  C   UNL     1     111.089 110.207  76.310  1.00  0.00     0.005 A 
ATOM     14  C   UNL     1     110.515 110.976  74.091  1.00  0.00     0.005 A 
ATOM     15  C   UNL     1     111.402 110.334  74.956  1.00  0.00    -0.051 A 
ATOM     16  C   UNL     1     112.686 109.783  74.433  1.00  0.00     0.044 C 
ENDBRANCH   7  10
ENDBRANCH   1   7
BRANCH   2  17
ATOM     17  C   UNL     1     111.015 115.334  78.627  1.00  0.00     0.227 C 
ATOM     18  O   UNL     1     111.839 116.139  78.206  1.00  0.00    -0.274 OA
ATOM     19  N   UNL     1     111.248 114.092  79.204  1.00  0.00    -0.326 N 
ATOM     20  H   UNL     1     110.444 113.524  79.460  1.00  0.00     0.169 HD
BRANCH  19  21
ATOM     21  C   UNL     1     112.498 113.473  79.441  1.00  0.00     0.044 A 
ATOM     22  C   UNL     1     113.679 114.150  79.136  1.00  0.00     0.073 A 
ATOM     23  C   UNL     1     112.550 112.187  79.977  1.00  0.00     0.026 A 
ATOM     24  C   UNL     1     114.912 113.540  79.369  1.00  0.00     0.133 A 
ATOM     25  C   UNL     1     113.782 111.577  80.209  1.00  0.00     0.006 A 
ATOM     26  C   UNL     1     114.964 112.253  79.905  1.00  0.00     0.047 A 
BRANCH  24  27
ATOM     27  O   UNL     1     116.065 114.201  79.072  1.00  0.00    -0.424 OA
BRANCH  27  28
ATOM     28  C   UNL     1     117.030 114.286  80.062  1.00  0.00     0.321 A 
ATOM     29  N   UNL     1     118.095 113.471  79.936  1.00  0.00    -0.203 NA
ATOM     30  N   UNL     1     116.804 115.176  81.046  1.00  0.00    -0.203 NA
ATOM     31  C   UNL     1     119.015 113.580  80.916  1.00  0.00     0.118 A 
ATOM     32  C   UNL     1     117.764 115.233  81.993  1.00  0.00     0.118 A 
ATOM     33  C   UNL     1     118.902 114.453  81.980  1.00  0.00     0.040 A 
ENDBRANCH  27  28
ENDBRANCH  24  27
ENDBRANCH  19  21
ENDBRANCH   2  17
TORSDOF 6
ENDMDL
MODEL 13
REMARK VINA RESULT:      -9.5      3.198      9.628
REMARK SMILES Cc1ccc(S(=O)(=O)N2CCC(C(=O)Nc3cccc(Oc4ncccn4)c3)CC2)cc1
REMARK SMILES IDX 9 1 12 2 11 3 29 4 10 5 30 6 6 7 7 8 8 9 5 10 4 11 31 12
REMARK SMILES IDX 3 13 32 14 2 15 1 16 13 17 14 18 15 19 16 21 28 22 17 23
REMARK SMILES IDX 20 24 18 25 19 26 21 27 22 28 23 29 27 30 24 31 26 32 25 33
REMARK H PARENT 15 20
ROOT
ATOM      1  N   UNL     1     108.066 113.446  77.309  1.00  0.00    -0.198 NA
ATOM      2  C   UNL     1     109.541 115.636  78.552  1.00  0.00     0.081 C 
ATOM      3  C   UNL     1     109.057 115.698  77.101  1.00  0.00     0.030 C 
ATOM      4  C   UNL     1     108.758 114.607  79.369  1.00  0.00     0.030 C 
ATOM      5  C   UNL     1     108.920 114.321  76.455  1.00  0.00     0.103 C 
ATOM      6  C   UNL     1     108.647 113.256  78.668  1.00  0.00     0.103 C 
ENDROOT
BRANCH   1   7
ATOM      7  S   UNL     1     107.493 112.019  76.551  1.00  0.00     0.243 S 
ATOM      8  O   UNL     1     106.674 112.384  75.416  1.00  0.00    -0.207 OA
ATOM      9  O   UNL     1     107.002 111.114  77.566  1.00  0.00    -0.207 OA
BRANCH   7  10
ATOM     10  C   UNL     1     109.013 111.369  75.933  1.00  0.00     0.082 A 
ATOM     11  C   UNL     1     109.327 111.498  74.580  1.00  0.00     0.022 A 
ATOM     12  C   UNL     1     109.899 110.723  76.797  1.00  0.00     0.022 A 
ATOM     13  C   UNL     1     110.527 110.981  74.090  1.00  0.00     0.005 A 
ATOM     14  C   UNL     1     111.098 110.207  76.307  1.00  0.00     0.005 A 
ATOM     15  C   UNL     1     111.413 110.336  74.954  1.00  0.00    -0.051 A 
ATOM     16  C   UNL     1     112.696 109.784  74.431  1.00  0.00     0.044 C 
ENDBRANCH   7  10
ENDBRANCH   1   7
BRANCH   2  17
ATOM     17  C   UNL     1     111.012 115.348  78.623  1.00  0.00     0.227 C 
ATOM     18  O   UNL     1     111.832 116.158  78.204  1.00  0.00    -0.274 OA
ATOM     19  N   UNL     1     111.251 114.105  79.197  1.00  0.00    -0.326 N 
ATOM     20  H   UNL     1     110.450 113.533  79.452  1.00  0.00     0.169 HD
BRANCH  19  21
ATOM     21  C   UNL     1     112.504 113.491  79.431  1.00  0.00     0.044 A 
ATOM     22  C   UNL     1     113.682 114.177  79.134  1.00  0.00     0.073 A 
ATOM     23  C   UNL     1     112.562 112.202  79.958  1.00  0.00     0.026 A 
ATOM     24  C   UNL     1     114.918 113.572  79.364  1.00  0.00     0.133 A 
ATOM     25  C   UNL     1     113.798 111.596  80.188  1.00  0.00     0.006 A 
ATOM     26  C   UNL     1     114.976 112.281  79.890  1.00  0.00     0.047 A 
BRANCH  24  27
ATOM     27  O   UNL     1     116.068 114.241  79.074  1.00  0.00    -0.424 OA
BRANCH  27  28
ATOM     28  C   UNL     1     117.036 114.313  80.062  1.00  0.00     0.321 A 
ATOM     29  N   UNL     1     116.806 115.176  81.070  1.00  0.00    -0.203 NA
ATOM     30  N   UNL     1     118.107 113.510  79.912  1.00  0.00    -0.203 NA
ATOM     31  C   UNL     1     117.768 115.219  82.013  1.00  0.00     0.118 A 
ATOM     32  C   UNL     1     119.030 113.605  80.892  1.00  0.00     0.118 A 
ATOM     33  C   UNL     1     118.913 114.449  81.977  1.00  0.00     0.040 A 
ENDBRANCH  27  28
ENDBRANCH  24  27
ENDBRANCH  19  21
ENDBRANCH   2  17
TORSDOF 6
ENDMDL
MODEL 14
REMARK VINA RESULT:      -9.5      3.358      9.643
REMARK SMILES Cc1ccc(S(=O)(=O)N2CCC(C(=O)Nc3cccc(Oc4ncccn4)c3)CC2)cc1
REMARK SMILES IDX 9 1 12 2 11 3 29 4 10 5 30 6 6 7 7 8 8 9 5 10 4 11 31 12
REMARK SMILES IDX 3 13 32 14 2 15 1 16 13 17 14 18 15 19 16 21 28 22 17 23
REMARK SMILES IDX 20 24 18 25 19 26 21 27 22 28 23 29 27 30 24 31 26 32 25 33
REMARK H PARENT 15 20
ROOT
ATOM      1  N   UNL     1     108.052 113.465  77.467  1.00  0.00    -0.198 NA
ATOM      2  C   UNL     1     109.439 115.685  78.758  1.00  0.00     0.081 C 
ATOM      3  C   UNL     1     109.097 115.693  77.267  1.00  0.00     0.030 C 
ATOM      4  C   UNL     1     108.565 114.701  79.537  1.00  0.00     0.030 C 
ATOM      5  C   UNL     1     108.999 114.292  76.666  1.00  0.00     0.103 C 
ATOM      6  C   UNL     1     108.499 113.324  78.883  1.00  0.00     0.103 C 
ENDROOT
BRANCH   1   7
ATOM      7  S   UNL     1     107.531 112.015  76.716  1.00  0.00     0.243 S 
ATOM      8  O   UNL     1     106.688 112.346  75.587  1.00  0.00    -0.207 OA
ATOM      9  O   UNL     1     107.084 111.093  77.736  1.00  0.00    -0.207 OA
BRANCH   7  10
ATOM     10  C   UNL     1     109.071 111.425  76.086  1.00  0.00     0.082 A 
ATOM     11  C   UNL     1     109.959 110.759  76.930  1.00  0.00     0.022 A 
ATOM     12  C   UNL     1     109.401 111.629  74.745  1.00  0.00     0.022 A 
ATOM     13  C   UNL     1     111.178 110.294  76.433  1.00  0.00     0.005 A 
ATOM     14  C   UNL     1     110.618 111.165  74.249  1.00  0.00     0.005 A 
ATOM     15  C   UNL     1     111.507 110.498  75.093  1.00  0.00    -0.051 A 
ATOM     16  C   UNL     1     112.809 110.001  74.561  1.00  0.00     0.044 C 
ENDBRANCH   7  10
ENDBRANCH   1   7
BRANCH   2  17
ATOM     17  C   UNL     1     110.892 115.381  78.982  1.00  0.00     0.227 C 
ATOM     18  O   UNL     1     111.237 114.505  79.767  1.00  0.00    -0.274 OA
ATOM     19  N   UNL     1     111.700 116.205  78.207  1.00  0.00    -0.326 N 
ATOM     20  H   UNL     1     111.251 116.918  77.637  1.00  0.00     0.169 HD
BRANCH  19  21
ATOM     21  C   UNL     1     113.113 116.215  78.148  1.00  0.00     0.044 A 
ATOM     22  C   UNL     1     113.840 115.139  78.659  1.00  0.00     0.073 A 
ATOM     23  C   UNL     1     113.781 117.300  77.581  1.00  0.00     0.026 A 
ATOM     24  C   UNL     1     115.234 115.149  78.602  1.00  0.00     0.133 A 
ATOM     25  C   UNL     1     115.175 117.311  77.524  1.00  0.00     0.006 A 
ATOM     26  C   UNL     1     115.901 116.235  78.035  1.00  0.00     0.047 A 
BRANCH  24  27
ATOM     27  O   UNL     1     115.943 114.099  79.100  1.00  0.00    -0.424 OA
BRANCH  27  28
ATOM     28  C   UNL     1     116.811 114.350  80.150  1.00  0.00     0.321 A 
ATOM     29  N   UNL     1     117.983 113.686  80.133  1.00  0.00    -0.203 NA
ATOM     30  N   UNL     1     116.393 115.232  81.076  1.00  0.00    -0.203 NA
ATOM     31  C   UNL     1     118.803 113.955  81.170  1.00  0.00     0.118 A 
ATOM     32  C   UNL     1     117.263 115.453  82.084  1.00  0.00     0.118 A 
ATOM     33  C   UNL     1     118.494 114.838  82.184  1.00  0.00     0.040 A 
ENDBRANCH  27  28
ENDBRANCH  24  27
ENDBRANCH  19  21
ENDBRANCH   2  17
TORSDOF 6
ENDMDL
MODEL 15
REMARK VINA RESULT:      -9.5      3.608      9.240
REMARK SMILES Cc1ccc(S(=O)(=O)N2CCC(C(=O)Nc3cccc(Oc4ncccn4)c3)CC2)cc1
REMARK SMILES IDX 9 1 12 2 11 3 29 4 10 5 30 6 6 7 7 8 8 9 5 10 4 11 31 12
REMARK SMILES IDX 3 13 32 14 2 15 1 16 13 17 14 18 15 19 16 21 28 22 17 23
REMARK SMILES IDX 20 24 18 25 19 26 21 27 22 28 23 29 27 30 24 31 26 32 25 33
REMARK H PARENT 15 20
ROOT
ATOM      1  N   UNL     1     108.316 113.181  74.965  1.00  0.00    -0.198 NA
ATOM      2  C   UNL     1     108.054 113.289  77.870  1.00  0.00     0.081 C 
ATOM      3  C   UNL     1     108.686 114.426  77.065  1.00  0.00     0.030 C 
ATOM      4  C   UNL     1     107.162 112.403  76.999  1.00  0.00     0.030 C 
ATOM      5  C   UNL     1     109.315 113.957  75.754  1.00  0.00     0.103 C 
ATOM      6  C   UNL     1     107.841 111.974  75.702  1.00  0.00     0.103 C 
ENDROOT
BRANCH   1   7
ATOM      7  S   UNL     1     108.724 112.922  73.321  1.00  0.00     0.243 S 
ATOM      8  O   UNL     1     109.264 114.146  72.771  1.00  0.00    -0.207 OA
ATOM      9  O   UNL     1     107.634 112.228  72.671  1.00  0.00    -0.207 OA
BRANCH   7  10
ATOM     10  C   UNL     1     110.057 111.781  73.512  1.00  0.00     0.082 A 
ATOM     11  C   UNL     1     110.836 111.807  74.669  1.00  0.00     0.022 A 
ATOM     12  C   UNL     1     110.335 110.856  72.505  1.00  0.00     0.022 A 
ATOM     13  C   UNL     1     111.892 110.907  74.820  1.00  0.00     0.005 A 
ATOM     14  C   UNL     1     111.391 109.957  72.655  1.00  0.00     0.005 A 
ATOM     15  C   UNL     1     112.169 109.983  73.813  1.00  0.00    -0.051 A 
ATOM     16  C   UNL     1     113.298 109.021  73.974  1.00  0.00     0.044 C 
ENDBRANCH   7  10
ENDBRANCH   1   7
BRANCH   2  17
ATOM     17  C   UNL     1     109.101 112.460  78.556  1.00  0.00     0.227 C 
ATOM     18  O   UNL     1     108.825 111.360  79.023  1.00  0.00    -0.274 OA
ATOM     19  N   UNL     1     110.328 113.113  78.567  1.00  0.00    -0.326 N 
ATOM     20  H   UNL     1     110.376 114.049  78.172  1.00  0.00     0.169 HD
BRANCH  19  21
ATOM     21  C   UNL     1     111.544 112.649  79.120  1.00  0.00     0.044 A 
ATOM     22  C   UNL     1     112.740 112.831  78.424  1.00  0.00     0.073 A 
ATOM     23  C   UNL     1     111.550 112.009  80.359  1.00  0.00     0.026 A 
ATOM     24  C   UNL     1     113.940 112.374  78.968  1.00  0.00     0.133 A 
ATOM     25  C   UNL     1     112.750 111.551  80.903  1.00  0.00     0.006 A 
ATOM     26  C   UNL     1     113.945 111.733  80.207  1.00  0.00     0.047 A 
BRANCH  24  27
ATOM     27  O   UNL     1     115.107 112.552  78.289  1.00  0.00    -0.424 OA
BRANCH  27  28
ATOM     28  C   UNL     1     115.917 113.610  78.669  1.00  0.00     0.321 A 
ATOM     29  N   UNL     1     115.550 114.832  78.240  1.00  0.00    -0.203 NA
ATOM     30  N   UNL     1     116.986 113.305  79.429  1.00  0.00    -0.203 NA
ATOM     31  C   UNL     1     116.359 115.838  78.629  1.00  0.00     0.118 A 
ATOM     32  C   UNL     1     117.752 114.359  79.781  1.00  0.00     0.118 A 
ATOM     33  C   UNL     1     117.485 115.660  79.407  1.00  0.00     0.040 A 
ENDBRANCH  27  28
ENDBRANCH  24  27
ENDBRANCH  19  21
ENDBRANCH   2  17
TORSDOF 6
ENDMDL
