MODEL 1
REMARK VINA RESULT:      -7.9      0.000      0.000
REMARK SMILES Clc1ccc2c(c1)Cc1ccccc1C2
REMARK SMILES IDX 1 1 8 2 15 3 6 4 5 5 9 6 14 7 7 8 4 9 10 10 13 11 2 12 3 13
REMARK SMILES IDX 11 14 12 15
REMARK H PARENT
ROOT
ATOM      1  Cl  UNL     1      97.706 107.295 110.312  1.00  0.00    -0.084 Cl
ATOM      2  C   UNL     1      96.429 107.646 105.272  1.00  0.00     0.071 C 
ATOM      3  C   UNL     1      99.128 106.710 104.479  1.00  0.00     0.071 C 
ATOM      4  C   UNL     1      97.462 107.276 106.307  1.00  0.00    -0.039 A 
ATOM      5  C   UNL     1      98.740 106.833 105.931  1.00  0.00    -0.040 A 
ATOM      6  C   UNL     1      96.691 107.102 103.891  1.00  0.00    -0.040 A 
ATOM      7  C   UNL     1      97.969 106.658 103.515  1.00  0.00    -0.040 A 
ATOM      8  C   UNL     1      97.154 107.420 107.668  1.00  0.00     0.024 A 
ATOM      9  C   UNL     1      99.689 106.542 106.924  1.00  0.00     0.006 A 
ATOM     10  C   UNL     1      95.650 107.079 102.952  1.00  0.00     0.004 A 
ATOM     11  C   UNL     1      98.183 106.201 102.206  1.00  0.00     0.004 A 
ATOM     12  C   UNL     1      98.100 107.117 108.647  1.00  0.00     0.041 A 
ATOM     13  C   UNL     1      99.368 106.678 108.274  1.00  0.00     0.021 A 
ATOM     14  C   UNL     1      95.871 106.612 101.656  1.00  0.00     0.000 A 
ATOM     15  C   UNL     1      97.139 106.173 101.284  1.00  0.00     0.000 A 
ENDROOT
TORSDOF 0
ENDMDL
MODEL 2
REMARK VINA RESULT:      -7.4      2.618      5.618
REMARK SMILES Clc1ccc2c(c1)Cc1ccccc1C2
REMARK SMILES IDX 1 1 8 2 15 3 6 4 5 5 9 6 14 7 7 8 4 9 10 10 13 11 2 12 3 13
REMARK SMILES IDX 11 14 12 15
REMARK H PARENT
ROOT
ATOM      1  Cl  UNL     1      97.377 106.915 101.874  1.00  0.00    -0.084 Cl
ATOM      2  C   UNL     1      96.024 107.655 106.851  1.00  0.00     0.071 C 
ATOM      3  C   UNL     1      98.607 106.526 107.766  1.00  0.00     0.071 C 
ATOM      4  C   UNL     1      97.068 107.198 105.864  1.00  0.00    -0.039 A 
ATOM      5  C   UNL     1      98.291 106.662 106.298  1.00  0.00    -0.040 A 
ATOM      6  C   UNL     1      96.537 107.912 108.245  1.00  0.00    -0.040 A 
ATOM      7  C   UNL     1      97.760 107.377 108.679  1.00  0.00    -0.040 A 
ATOM      8  C   UNL     1      96.793 107.267 104.490  1.00  0.00     0.024 A 
ATOM      9  C   UNL     1      99.219 106.205 105.350  1.00  0.00     0.006 A 
ATOM     10  C   UNL     1      95.757 108.661 109.139  1.00  0.00     0.004 A 
ATOM     11  C   UNL     1      98.182 107.599 109.999  1.00  0.00     0.004 A 
ATOM     12  C   UNL     1      97.727 106.820 103.556  1.00  0.00     0.041 A 
ATOM     13  C   UNL     1      98.940 106.289 103.986  1.00  0.00     0.021 A 
ATOM     14  C   UNL     1      96.190 108.885 110.445  1.00  0.00     0.000 A 
ATOM     15  C   UNL     1      97.403 108.354 110.874  1.00  0.00     0.000 A 
ENDROOT
TORSDOF 0
ENDMDL
MODEL 3
REMARK VINA RESULT:      -7.2      0.968      2.373
REMARK SMILES Clc1ccc2c(c1)Cc1ccccc1C2
REMARK SMILES IDX 1 1 8 2 15 3 6 4 5 5 9 6 14 7 7 8 4 9 10 10 13 11 2 12 3 13
REMARK SMILES IDX 11 14 12 15
REMARK H PARENT
ROOT
ATOM      1  Cl  UNL     1      98.178 107.664 110.087  1.00  0.00    -0.084 Cl
ATOM      2  C   UNL     1      98.285 106.157 105.101  1.00  0.00     0.071 C 
ATOM      3  C   UNL     1      95.455 106.966 104.751  1.00  0.00     0.071 C 
ATOM      4  C   UNL     1      97.506 106.778 106.233  1.00  0.00    -0.039 A 
ATOM      5  C   UNL     1      96.166 107.161 106.066  1.00  0.00    -0.040 A 
ATOM      6  C   UNL     1      97.703 106.385 103.729  1.00  0.00    -0.040 A 
ATOM      7  C   UNL     1      96.363 106.768 103.563  1.00  0.00    -0.040 A 
ATOM      8  C   UNL     1      98.119 106.935 107.485  1.00  0.00     0.024 A 
ATOM      9  C   UNL     1      95.460 107.694 107.157  1.00  0.00     0.006 A 
ATOM     10  C   UNL     1      98.503 106.167 102.598  1.00  0.00     0.004 A 
ATOM     11  C   UNL     1      95.846 106.926 102.268  1.00  0.00     0.004 A 
ATOM     12  C   UNL     1      97.412 107.476 108.559  1.00  0.00     0.041 A 
ATOM     13  C   UNL     1      96.082 107.855 108.394  1.00  0.00     0.021 A 
ATOM     14  C   UNL     1      97.982 106.338 101.315  1.00  0.00     0.000 A 
ATOM     15  C   UNL     1      96.653 106.717 101.151  1.00  0.00     0.000 A 
ENDROOT
TORSDOF 0
ENDMDL
MODEL 4
REMARK VINA RESULT:      -6.8      1.519      3.269
REMARK SMILES Clc1ccc2c(c1)Cc1ccccc1C2
REMARK SMILES IDX 1 1 8 2 15 3 6 4 5 5 9 6 14 7 7 8 4 9 10 10 13 11 2 12 3 13
REMARK SMILES IDX 11 14 12 15
REMARK H PARENT
ROOT
ATOM      1  Cl  UNL     1      97.792 108.428 112.329  1.00  0.00    -0.084 Cl
ATOM      2  C   UNL     1      98.537 106.473 107.557  1.00  0.00     0.071 C 
ATOM      3  C   UNL     1      95.934 107.568 106.655  1.00  0.00     0.071 C 
ATOM      4  C   UNL     1      97.666 107.279 108.487  1.00  0.00    -0.039 A 
ATOM      5  C   UNL     1      96.433 107.798 108.059  1.00  0.00    -0.040 A 
ATOM      6  C   UNL     1      98.228 106.641 106.091  1.00  0.00    -0.040 A 
ATOM      7  C   UNL     1      96.994 107.160 105.664  1.00  0.00    -0.040 A 
ATOM      8  C   UNL     1      98.075 107.478 109.814  1.00  0.00     0.024 A 
ATOM      9  C   UNL     1      95.630 108.505 108.967  1.00  0.00     0.006 A 
ATOM     10  C   UNL     1      99.171 106.231 105.137  1.00  0.00     0.004 A 
ATOM     11  C   UNL     1      96.727 107.258 104.290  1.00  0.00     0.004 A 
ATOM     12  C   UNL     1      97.274 108.191 110.705  1.00  0.00     0.041 A 
ATOM     13  C   UNL     1      96.051 108.705 110.281  1.00  0.00     0.021 A 
ATOM     14  C   UNL     1      98.898 106.344 103.774  1.00  0.00     0.000 A 
ATOM     15  C   UNL     1      97.675 106.858 103.351  1.00  0.00     0.000 A 
ENDROOT
TORSDOF 0
ENDMDL
MODEL 5
REMARK VINA RESULT:      -6.5      1.265      1.778
REMARK SMILES Clc1ccc2c(c1)Cc1ccccc1C2
REMARK SMILES IDX 1 1 8 2 15 3 6 4 5 5 9 6 14 7 7 8 4 9 10 10 13 11 2 12 3 13
REMARK SMILES IDX 11 14 12 15
REMARK H PARENT
ROOT
ATOM      1  Cl  UNL     1      95.943 108.752 111.340  1.00  0.00    -0.084 Cl
ATOM      2  C   UNL     1      96.020 108.204 106.159  1.00  0.00     0.071 C 
ATOM      3  C   UNL     1      98.626 106.800 106.304  1.00  0.00     0.071 C 
ATOM      4  C   UNL     1      96.687 107.933 107.484  1.00  0.00    -0.039 A 
ATOM      5  C   UNL     1      97.922 107.268 107.552  1.00  0.00    -0.040 A 
ATOM      6  C   UNL     1      96.514 107.357 105.014  1.00  0.00    -0.040 A 
ATOM      7  C   UNL     1      97.749 106.692 105.082  1.00  0.00    -0.040 A 
ATOM      8  C   UNL     1      96.085 108.392 108.665  1.00  0.00     0.024 A 
ATOM      9  C   UNL     1      98.534 107.075 108.800  1.00  0.00     0.006 A 
ATOM     10  C   UNL     1      95.747 107.268 103.843  1.00  0.00     0.004 A 
ATOM     11  C   UNL     1      98.194 105.950 103.978  1.00  0.00     0.004 A 
ATOM     12  C   UNL     1      96.696 108.185 109.901  1.00  0.00     0.041 A 
ATOM     13  C   UNL     1      97.921 107.526 109.968  1.00  0.00     0.021 A 
ATOM     14  C   UNL     1      96.195 106.519 102.755  1.00  0.00     0.000 A 
ATOM     15  C   UNL     1      97.419 105.860 102.824  1.00  0.00     0.000 A 
ENDROOT
TORSDOF 0
ENDMDL
MODEL 6
REMARK VINA RESULT:      -6.1      2.593      5.867
REMARK SMILES Clc1ccc2c(c1)Cc1ccccc1C2
REMARK SMILES IDX 1 1 8 2 15 3 6 4 5 5 9 6 14 7 7 8 4 9 10 10 13 11 2 12 3 13
REMARK SMILES IDX 11 14 12 15
REMARK H PARENT
ROOT
ATOM      1  Cl  UNL     1      98.078 105.429 101.352  1.00  0.00    -0.084 Cl
ATOM      2  C   UNL     1      98.669 107.021 106.278  1.00  0.00     0.071 C 
ATOM      3  C   UNL     1      95.924 108.139 106.291  1.00  0.00     0.071 C 
ATOM      4  C   UNL     1      97.772 106.899 105.072  1.00  0.00    -0.039 A 
ATOM      5  C   UNL     1      96.472 107.429 105.079  1.00  0.00    -0.040 A 
ATOM      6  C   UNL     1      97.957 107.324 107.571  1.00  0.00    -0.040 A 
ATOM      7  C   UNL     1      96.656 107.854 107.578  1.00  0.00    -0.040 A 
ATOM      8  C   UNL     1      98.261 106.285 103.910  1.00  0.00     0.024 A 
ATOM      9  C   UNL     1      95.683 107.337 103.921  1.00  0.00     0.006 A 
ATOM     10  C   UNL     1      98.622 107.115 108.789  1.00  0.00     0.004 A 
ATOM     11  C   UNL     1      96.045 108.166 108.801  1.00  0.00     0.004 A 
ATOM     12  C   UNL     1      97.464 106.188 102.769  1.00  0.00     0.041 A 
ATOM     13  C   UNL     1      96.175 106.715 102.775  1.00  0.00     0.021 A 
ATOM     14  C   UNL     1      98.000 107.419 110.000  1.00  0.00     0.000 A 
ATOM     15  C   UNL     1      96.711 107.945 110.005  1.00  0.00     0.000 A 
ENDROOT
TORSDOF 0
ENDMDL
MODEL 7
REMARK VINA RESULT:      -5.6     15.291     16.623
REMARK SMILES Clc1ccc2c(c1)Cc1ccccc1C2
REMARK SMILES IDX 1 1 8 2 15 3 6 4 5 5 9 6 14 7 7 8 4 9 10 10 13 11 2 12 3 13
REMARK SMILES IDX 11 14 12 15
REMARK H PARENT
ROOT
ATOM      1  Cl  UNL     1     102.627  97.903 117.473  1.00  0.00    -0.084 Cl
ATOM      2  C   UNL     1     105.554  96.733 113.324  1.00  0.00     0.071 C 
ATOM      3  C   UNL     1     106.637  94.346 114.708  1.00  0.00     0.071 C 
ATOM      4  C   UNL     1     105.097  96.362 114.712  1.00  0.00    -0.039 A 
ATOM      5  C   UNL     1     105.610  95.231 115.368  1.00  0.00    -0.040 A 
ATOM      6  C   UNL     1     106.216  95.618 112.554  1.00  0.00    -0.040 A 
ATOM      7  C   UNL     1     106.729  94.488 113.210  1.00  0.00    -0.040 A 
ATOM      8  C   UNL     1     104.176  97.185 115.376  1.00  0.00     0.024 A 
ATOM      9  C   UNL     1     105.194  94.944 116.677  1.00  0.00     0.006 A 
ATOM     10  C   UNL     1     106.360  95.734 111.164  1.00  0.00     0.004 A 
ATOM     11  C   UNL     1     107.378  93.493 112.463  1.00  0.00     0.004 A 
ATOM     12  C   UNL     1     103.760  96.885 116.673  1.00  0.00     0.041 A 
ATOM     13  C   UNL     1     104.270  95.764 117.323  1.00  0.00     0.021 A 
ATOM     14  C   UNL     1     106.998  94.733 110.430  1.00  0.00     0.000 A 
ATOM     15  C   UNL     1     107.507  93.613 111.081  1.00  0.00     0.000 A 
ENDROOT
TORSDOF 0
ENDMDL
MODEL 8
REMARK VINA RESULT:      -5.5      2.088      3.301
REMARK SMILES Clc1ccc2c(c1)Cc1ccccc1C2
REMARK SMILES IDX 1 1 8 2 15 3 6 4 5 5 9 6 14 7 7 8 4 9 10 10 13 11 2 12 3 13
REMARK SMILES IDX 11 14 12 15
REMARK H PARENT
ROOT
ATOM      1  Cl  UNL     1      95.456 109.677 112.581  1.00  0.00    -0.084 Cl
ATOM      2  C   UNL     1      95.970 108.810 107.469  1.00  0.00     0.071 C 
ATOM      3  C   UNL     1      98.261 106.996 107.964  1.00  0.00     0.071 C 
ATOM      4  C   UNL     1      96.439 108.511 108.870  1.00  0.00    -0.039 A 
ATOM      5  C   UNL     1      97.525 107.652 109.104  1.00  0.00    -0.040 A 
ATOM      6  C   UNL     1      96.423 107.824 106.423  1.00  0.00    -0.040 A 
ATOM      7  C   UNL     1      97.509 106.964 106.657  1.00  0.00    -0.040 A 
ATOM      8  C   UNL     1      95.808 109.136 109.956  1.00  0.00     0.024 A 
ATOM      9  C   UNL     1      97.961 107.434 110.420  1.00  0.00     0.006 A 
ATOM     10  C   UNL     1      95.778 107.795 105.178  1.00  0.00     0.004 A 
ATOM     11  C   UNL     1      97.930 106.092 105.642  1.00  0.00     0.004 A 
ATOM     12  C   UNL     1      96.243 108.904 111.261  1.00  0.00     0.041 A 
ATOM     13  C   UNL     1      97.319 108.052 111.492  1.00  0.00     0.021 A 
ATOM     14  C   UNL     1      96.197 106.916 104.180  1.00  0.00     0.000 A 
ATOM     15  C   UNL     1      97.274 106.065 104.413  1.00  0.00     0.000 A 
ENDROOT
TORSDOF 0
ENDMDL
MODEL 9
REMARK VINA RESULT:      -5.5     14.228     16.245
REMARK SMILES Clc1ccc2c(c1)Cc1ccccc1C2
REMARK SMILES IDX 1 1 8 2 15 3 6 4 5 5 9 6 14 7 7 8 4 9 10 10 13 11 2 12 3 13
REMARK SMILES IDX 11 14 12 15
REMARK H PARENT
ROOT
ATOM      1  Cl  UNL     1     108.822  92.989 113.371  1.00  0.00    -0.084 Cl
ATOM      2  C   UNL     1     105.033  96.187 114.973  1.00  0.00     0.071 C 
ATOM      3  C   UNL     1     103.733  96.048 112.313  1.00  0.00     0.071 C 
ATOM      4  C   UNL     1     105.604  95.332 113.870  1.00  0.00    -0.039 A 
ATOM      5  C   UNL     1     104.988  95.267 112.610  1.00  0.00    -0.040 A 
ATOM      6  C   UNL     1     103.590  96.581 114.789  1.00  0.00    -0.040 A 
ATOM      7  C   UNL     1     102.974  96.515 113.529  1.00  0.00    -0.040 A 
ATOM      8  C   UNL     1     106.795  94.625 114.093  1.00  0.00     0.024 A 
ATOM      9  C   UNL     1     105.575  94.496 111.594  1.00  0.00     0.006 A 
ATOM     10  C   UNL     1     102.863  97.063 115.887  1.00  0.00     0.004 A 
ATOM     11  C   UNL     1     101.642  96.934 113.390  1.00  0.00     0.004 A 
ATOM     12  C   UNL     1     107.363  93.853 113.080  1.00  0.00     0.041 A 
ATOM     13  C   UNL     1     106.753  93.788 111.831  1.00  0.00     0.021 A 
ATOM     14  C   UNL     1     101.536  97.467 115.740  1.00  0.00     0.000 A 
ATOM     15  C   UNL     1     100.926  97.402 114.490  1.00  0.00     0.000 A 
ENDROOT
TORSDOF 0
ENDMDL
MODEL 10
REMARK VINA RESULT:      -5.5     14.136     15.992
REMARK SMILES Clc1ccc2c(c1)Cc1ccccc1C2
REMARK SMILES IDX 1 1 8 2 15 3 6 4 5 5 9 6 14 7 7 8 4 9 10 10 13 11 2 12 3 13
REMARK SMILES IDX 11 14 12 15
REMARK H PARENT
ROOT
ATOM      1  Cl  UNL     1     100.501  98.203 115.289  1.00  0.00    -0.084 Cl
ATOM      2  C   UNL     1     104.532  96.437 112.499  1.00  0.00     0.071 C 
ATOM      3  C   UNL     1     105.836  95.408 114.954  1.00  0.00     0.071 C 
ATOM      4  C   UNL     1     103.870  96.569 113.847  1.00  0.00    -0.039 A 
ATOM      5  C   UNL     1     104.488  96.082 115.010  1.00  0.00    -0.040 A 
ATOM      6  C   UNL     1     105.623  95.400 112.426  1.00  0.00    -0.040 A 
ATOM      7  C   UNL     1     106.241  94.912 113.589  1.00  0.00    -0.040 A 
ATOM      8  C   UNL     1     102.636  97.228 113.946  1.00  0.00     0.024 A 
ATOM      9  C   UNL     1     103.861  96.264 116.253  1.00  0.00     0.006 A 
ATOM     10  C   UNL     1     106.059  94.947 111.172  1.00  0.00     0.004 A 
ATOM     11  C   UNL     1     107.285  93.981 113.477  1.00  0.00     0.004 A 
ATOM     12  C   UNL     1     102.016  97.394 115.185  1.00  0.00     0.041 A 
ATOM     13  C   UNL     1     102.630  96.912 116.338  1.00  0.00     0.021 A 
ATOM     14  C   UNL     1     107.090  94.013 111.073  1.00  0.00     0.000 A 
ATOM     15  C   UNL     1     107.703  93.530 112.226  1.00  0.00     0.000 A 
ENDROOT
TORSDOF 0
ENDMDL
MODEL 11
REMARK VINA RESULT:      -5.4     13.940     16.388
REMARK SMILES Clc1ccc2c(c1)Cc1ccccc1C2
REMARK SMILES IDX 1 1 8 2 15 3 6 4 5 5 9 6 14 7 7 8 4 9 10 10 13 11 2 12 3 13
REMARK SMILES IDX 11 14 12 15
REMARK H PARENT
ROOT
ATOM      1  Cl  UNL     1     100.573  97.832 115.289  1.00  0.00    -0.084 Cl
ATOM      2  C   UNL     1     104.696  94.672 114.881  1.00  0.00     0.071 C 
ATOM      3  C   UNL     1     104.457  94.671 111.926  1.00  0.00     0.071 C 
ATOM      4  C   UNL     1     103.630  95.480 114.185  1.00  0.00    -0.039 A 
ATOM      5  C   UNL     1     103.517  95.479 112.785  1.00  0.00    -0.040 A 
ATOM      6  C   UNL     1     105.850  94.255 114.005  1.00  0.00    -0.040 A 
ATOM      7  C   UNL     1     105.737  94.254 112.606  1.00  0.00    -0.040 A 
ATOM      8  C   UNL     1     102.709  96.210 114.951  1.00  0.00     0.024 A 
ATOM      9  C   UNL     1     102.483  96.207 112.176  1.00  0.00     0.006 A 
ATOM     10  C   UNL     1     107.042  93.817 114.601  1.00  0.00     0.004 A 
ATOM     11  C   UNL     1     106.818  93.815 111.827  1.00  0.00     0.004 A 
ATOM     12  C   UNL     1     101.693  96.939 114.335  1.00  0.00     0.041 A 
ATOM     13  C   UNL     1     101.580  96.938 112.947  1.00  0.00     0.021 A 
ATOM     14  C   UNL     1     108.115  93.393 113.816  1.00  0.00     0.000 A 
ATOM     15  C   UNL     1     108.001  93.392 112.429  1.00  0.00     0.000 A 
ENDROOT
TORSDOF 0
ENDMDL
MODEL 12
REMARK VINA RESULT:      -5.3     13.577     15.419
REMARK SMILES Clc1ccc2c(c1)Cc1ccccc1C2
REMARK SMILES IDX 1 1 8 2 15 3 6 4 5 5 9 6 14 7 7 8 4 9 10 10 13 11 2 12 3 13
REMARK SMILES IDX 11 14 12 15
REMARK H PARENT
ROOT
ATOM      1  Cl  UNL     1     108.204  93.406 113.273  1.00  0.00    -0.084 Cl
ATOM      2  C   UNL     1     103.095  93.370 112.252  1.00  0.00     0.071 C 
ATOM      3  C   UNL     1     102.979  96.320 112.509  1.00  0.00     0.071 C 
ATOM      4  C   UNL     1     104.335  94.176 112.542  1.00  0.00    -0.039 A 
ATOM      5  C   UNL     1     104.280  95.574 112.665  1.00  0.00    -0.040 A 
ATOM      6  C   UNL     1     101.944  94.158 111.679  1.00  0.00    -0.040 A 
ATOM      7  C   UNL     1     101.889  95.555 111.802  1.00  0.00    -0.040 A 
ATOM      8  C   UNL     1     105.557  93.515 112.737  1.00  0.00     0.024 A 
ATOM      9  C   UNL     1     105.447  96.286 112.981  1.00  0.00     0.006 A 
ATOM     10  C   UNL     1     100.889  93.478 111.053  1.00  0.00     0.004 A 
ATOM     11  C   UNL     1     100.779  96.249 111.296  1.00  0.00     0.004 A 
ATOM     12  C   UNL     1     106.713  94.233 113.040  1.00  0.00     0.041 A 
ATOM     13  C   UNL     1     106.658  95.618 113.162  1.00  0.00     0.021 A 
ATOM     14  C   UNL     1      99.795  94.179 110.544  1.00  0.00     0.000 A 
ATOM     15  C   UNL     1      99.741  95.564 110.666  1.00  0.00     0.000 A 
ENDROOT
TORSDOF 0
ENDMDL
MODEL 13
REMARK VINA RESULT:      -5.2     13.723     15.087
REMARK SMILES Clc1ccc2c(c1)Cc1ccccc1C2
REMARK SMILES IDX 1 1 8 2 15 3 6 4 5 5 9 6 14 7 7 8 4 9 10 10 13 11 2 12 3 13
REMARK SMILES IDX 11 14 12 15
REMARK H PARENT
ROOT
ATOM      1  Cl  UNL     1     100.062  93.138  97.503  1.00  0.00    -0.084 Cl
ATOM      2  C   UNL     1      99.036  93.725 102.578  1.00  0.00     0.071 C 
ATOM      3  C   UNL     1     101.605  92.431 103.291  1.00  0.00     0.071 C 
ATOM      4  C   UNL     1      99.996  93.260 101.513  1.00  0.00    -0.039 A 
ATOM      5  C   UNL     1     101.213  92.647 101.851  1.00  0.00    -0.040 A 
ATOM      6  C   UNL     1      99.640  93.894 103.948  1.00  0.00    -0.040 A 
ATOM      7  C   UNL     1     100.857  93.281 104.286  1.00  0.00    -0.040 A 
ATOM      8  C   UNL     1      99.648  93.403 100.161  1.00  0.00     0.024 A 
ATOM      9  C   UNL     1     102.061  92.186 100.831  1.00  0.00     0.006 A 
ATOM     10  C   UNL     1      98.951  94.641 104.916  1.00  0.00     0.004 A 
ATOM     11  C   UNL     1     101.364  93.425 105.587  1.00  0.00     0.004 A 
ATOM     12  C   UNL     1     100.502  92.952  99.156  1.00  0.00     0.041 A 
ATOM     13  C   UNL     1     101.709  92.344  99.491  1.00  0.00     0.021 A 
ATOM     14  C   UNL     1      99.470  94.786 106.203  1.00  0.00     0.000 A 
ATOM     15  C   UNL     1     100.677  94.178 106.537  1.00  0.00     0.000 A 
ENDROOT
TORSDOF 0
ENDMDL
MODEL 14
REMARK VINA RESULT:      -5.2     14.043     16.472
REMARK SMILES Clc1ccc2c(c1)Cc1ccccc1C2
REMARK SMILES IDX 1 1 8 2 15 3 6 4 5 5 9 6 14 7 7 8 4 9 10 10 13 11 2 12 3 13
REMARK SMILES IDX 11 14 12 15
REMARK H PARENT
ROOT
ATOM      1  Cl  UNL     1      99.425  96.017 111.872  1.00  0.00    -0.084 Cl
ATOM      2  C   UNL     1     104.571  95.205 111.945  1.00  0.00     0.071 C 
ATOM      3  C   UNL     1     104.548  95.054 114.906  1.00  0.00     0.071 C 
ATOM      4  C   UNL     1     103.286  95.333 112.722  1.00  0.00    -0.039 A 
ATOM      5  C   UNL     1     103.275  95.262 114.125  1.00  0.00    -0.040 A 
ATOM      6  C   UNL     1     105.711  94.572 112.703  1.00  0.00    -0.040 A 
ATOM      7  C   UNL     1     105.700  94.501 114.105  1.00  0.00    -0.040 A 
ATOM      8  C   UNL     1     102.087  95.572 112.035  1.00  0.00     0.024 A 
ATOM      9  C   UNL     1     102.065  95.432 114.815  1.00  0.00     0.006 A 
ATOM     10  C   UNL     1     106.821  94.087 111.996  1.00  0.00     0.004 A 
ATOM     11  C   UNL     1     106.801  93.946 114.776  1.00  0.00     0.004 A 
ATOM     12  C   UNL     1     100.888  95.728 112.730  1.00  0.00     0.041 A 
ATOM     13  C   UNL     1     100.877  95.658 114.121  1.00  0.00     0.021 A 
ATOM     14  C   UNL     1     107.905  93.527 112.673  1.00  0.00     0.000 A 
ATOM     15  C   UNL     1     107.894  93.458 114.063  1.00  0.00     0.000 A 
ENDROOT
TORSDOF 0
ENDMDL
MODEL 15
REMARK VINA RESULT:      -5.2     15.302     17.215
REMARK SMILES Clc1ccc2c(c1)Cc1ccccc1C2
REMARK SMILES IDX 1 1 8 2 15 3 6 4 5 5 9 6 14 7 7 8 4 9 10 10 13 11 2 12 3 13
REMARK SMILES IDX 11 14 12 15
REMARK H PARENT
ROOT
ATOM      1  Cl  UNL     1     107.558  93.828 109.987  1.00  0.00    -0.084 Cl
ATOM      2  C   UNL     1     104.253  95.858 113.466  1.00  0.00     0.071 C 
ATOM      3  C   UNL     1     105.847  94.736 115.699  1.00  0.00     0.071 C 
ATOM      4  C   UNL     1     105.518  95.080 113.207  1.00  0.00    -0.039 A 
ATOM      5  C   UNL     1     106.273  94.549 114.265  1.00  0.00    -0.040 A 
ATOM      6  C   UNL     1     104.109  96.388 114.870  1.00  0.00    -0.040 A 
ATOM      7  C   UNL     1     104.864  95.856 115.928  1.00  0.00    -0.040 A 
ATOM      8  C   UNL     1     105.924  94.847 111.885  1.00  0.00     0.024 A 
ATOM      9  C   UNL     1     107.420  93.792 113.982  1.00  0.00     0.006 A 
ATOM     10  C   UNL     1     103.172  97.399 115.131  1.00  0.00     0.004 A 
ATOM     11  C   UNL     1     104.669  96.345 117.229  1.00  0.00     0.004 A 
ATOM     12  C   UNL     1     107.072  94.103 111.615  1.00  0.00     0.041 A 
ATOM     13  C   UNL     1     107.820  93.575 112.664  1.00  0.00     0.021 A 
ATOM     14  C   UNL     1     102.994  97.885 116.426  1.00  0.00     0.000 A 
ATOM     15  C   UNL     1     103.743  97.357 117.475  1.00  0.00     0.000 A 
ENDROOT
TORSDOF 0
ENDMDL
