MODEL 1
REMARK VINA RESULT:      -7.8      0.000      0.000
REMARK SMILES Cc1ccccc1C(=O)Oc1ccc(N2C(=O)[C@H]3[C@@H]4C=C[C@@H]([C@@H]5C[C@H]45)[C@@H]3C2=O)cc1
REMARK SMILES IDX 9 1 8 2 10 3 11 4 14 5 13 6 29 7 12 8 30 9 15 10 17 11 16 12
REMARK SMILES IDX 18 13 27 14 19 15 26 16 28 17 25 18 20 19 22 20 23 21 24 22
REMARK SMILES IDX 21 23 7 24 2 25 6 26 3 27 5 28 4 29 1 30
REMARK H PARENT
ROOT
ATOM      1  O   UNL     1      96.274 105.537 106.621  1.00  0.00    -0.246 OA
ATOM      2  C   UNL     1      96.488 106.552 105.976  1.00  0.00     0.343 C 
ENDROOT
BRANCH   2   3
ATOM      3  O   UNL     1      96.591 107.842 106.501  1.00  0.00    -0.423 OA
BRANCH   3   4
ATOM      4  C   UNL     1      96.620 107.893 107.861  1.00  0.00     0.131 A 
ATOM      5  C   UNL     1      96.678 107.998 110.649  1.00  0.00     0.052 A 
ATOM      6  C   UNL     1      97.835 107.678 109.937  1.00  0.00     0.031 A 
ATOM      7  C   UNL     1      95.492 108.265 109.965  1.00  0.00     0.031 A 
ATOM      8  C   UNL     1      97.806 107.626 108.544  1.00  0.00     0.049 A 
ATOM      9  C   UNL     1      95.463 108.212 108.572  1.00  0.00     0.049 A 
BRANCH   5  10
ATOM     10  N   UNL     1      96.707 108.048 112.037  1.00  0.00    -0.250 N 
ATOM     11  O   UNL     1      97.329 105.802 112.602  1.00  0.00    -0.274 OA
ATOM     12  C   UNL     1      96.945 106.923 112.878  1.00  0.00     0.238 C 
ATOM     13  C   UNL     1      96.475 107.424 114.209  1.00  0.00     0.100 C 
ATOM     14  C   UNL     1      96.504 109.234 112.803  1.00  0.00     0.238 C 
ATOM     15  C   UNL     1      96.567 106.876 115.644  1.00  0.00     0.028 C 
ATOM     16  C   UNL     1      97.055 108.841 114.143  1.00  0.00     0.100 C 
ATOM     17  O   UNL     1      96.093 110.327 112.463  1.00  0.00    -0.274 OA
ATOM     18  C   UNL     1      97.843 107.233 116.409  1.00  0.00     0.001 C 
ATOM     19  C   UNL     1      95.455 107.720 116.319  1.00  0.00    -0.026 C 
ATOM     20  C   UNL     1      96.964 109.456 115.544  1.00  0.00     0.028 C 
ATOM     21  C   UNL     1      98.086 108.746 116.374  1.00  0.00     0.001 C 
ATOM     22  C   UNL     1      99.128 107.764 115.852  1.00  0.00     0.009 C 
ATOM     23  C   UNL     1      95.639 109.055 116.206  1.00  0.00    -0.026 C 
ENDBRANCH   5  10
ENDBRANCH   3   4
ENDBRANCH   2   3
BRANCH   2  24
ATOM     24  C   UNL     1      96.688 106.554 104.504  1.00  0.00     0.063 A 
ATOM     25  C   UNL     1      97.968 106.550 103.950  1.00  0.00    -0.037 A 
ATOM     26  C   UNL     1      95.568 106.561 103.673  1.00  0.00     0.016 A 
ATOM     27  C   UNL     1      98.129 106.553 102.565  1.00  0.00     0.004 A 
ATOM     28  C   UNL     1      95.729 106.564 102.287  1.00  0.00     0.001 A 
ATOM     29  C   UNL     1      97.009 106.559 101.732  1.00  0.00     0.000 A 
ATOM     30  C   UNL     1      99.185 106.543 104.817  1.00  0.00     0.045 C 
ENDBRANCH   2  24
TORSDOF 4
ENDMDL
MODEL 2
REMARK VINA RESULT:      -6.9     13.574     16.130
REMARK SMILES Cc1ccccc1C(=O)Oc1ccc(N2C(=O)[C@H]3[C@@H]4C=C[C@@H]([C@@H]5C[C@H]45)[C@@H]3C2=O)cc1
REMARK SMILES IDX 9 1 8 2 10 3 11 4 14 5 13 6 29 7 12 8 30 9 15 10 17 11 16 12
REMARK SMILES IDX 18 13 27 14 19 15 26 16 28 17 25 18 20 19 22 20 23 21 24 22
REMARK SMILES IDX 21 23 7 24 2 25 6 26 3 27 5 28 4 29 1 30
REMARK H PARENT
ROOT
ATOM      1  O   UNL     1     105.292  97.538 112.374  1.00  0.00    -0.246 OA
ATOM      2  C   UNL     1     105.026  96.542 113.029  1.00  0.00     0.343 C 
ENDROOT
BRANCH   2   3
ATOM      3  O   UNL     1     103.807  96.286 113.660  1.00  0.00    -0.423 OA
BRANCH   3   4
ATOM      4  C   UNL     1     102.821  95.860 112.825  1.00  0.00     0.131 A 
ATOM      5  C   UNL     1     100.799  94.987 111.111  1.00  0.00     0.052 A 
ATOM      6  C   UNL     1     100.772  96.287 111.619  1.00  0.00     0.031 A 
ATOM      7  C   UNL     1     101.838  94.125 111.461  1.00  0.00     0.031 A 
ATOM      8  C   UNL     1     101.783  96.723 112.475  1.00  0.00     0.049 A 
ATOM      9  C   UNL     1     102.848  94.562 112.318  1.00  0.00     0.049 A 
BRANCH   5  10
ATOM     10  N   UNL     1      99.791  94.553 110.259  1.00  0.00    -0.250 N 
ATOM     11  O   UNL     1     100.306  95.738 108.239  1.00  0.00    -0.274 OA
ATOM     12  C   UNL     1      99.594  95.038 108.934  1.00  0.00     0.238 C 
ATOM     13  C   UNL     1      98.202  94.572 108.635  1.00  0.00     0.100 C 
ATOM     14  C   UNL     1      98.822  93.563 110.597  1.00  0.00     0.238 C 
ATOM     15  C   UNL     1      97.341  94.543 107.360  1.00  0.00     0.028 C 
ATOM     16  C   UNL     1      98.288  93.171 109.251  1.00  0.00     0.100 C 
ATOM     17  O   UNL     1      98.549  93.068 111.675  1.00  0.00    -0.274 OA
ATOM     18  C   UNL     1      97.516  93.309 106.471  1.00  0.00     0.001 C 
ATOM     19  C   UNL     1      95.937  94.374 107.995  1.00  0.00    -0.026 C 
ATOM     20  C   UNL     1      97.062  92.375 108.792  1.00  0.00     0.028 C 
ATOM     21  C   UNL     1      97.341  92.026 107.291  1.00  0.00     0.001 C 
ATOM     22  C   UNL     1      98.621  92.300 106.511  1.00  0.00     0.009 C 
ATOM     23  C   UNL     1      95.823  93.282 108.784  1.00  0.00    -0.026 C 
ENDBRANCH   5  10
ENDBRANCH   3   4
ENDBRANCH   2   3
BRANCH   2  24
ATOM     24  C   UNL     1     105.985  95.427 113.242  1.00  0.00     0.063 A 
ATOM     25  C   UNL     1     106.660  94.842 112.171  1.00  0.00    -0.037 A 
ATOM     26  C   UNL     1     106.204  94.967 114.540  1.00  0.00     0.016 A 
ATOM     27  C   UNL     1     107.554  93.797 112.397  1.00  0.00     0.004 A 
ATOM     28  C   UNL     1     107.100  93.921 114.767  1.00  0.00     0.001 A 
ATOM     29  C   UNL     1     107.775  93.336 113.696  1.00  0.00     0.000 A 
ATOM     30  C   UNL     1     106.442  95.316 110.770  1.00  0.00     0.045 C 
ENDBRANCH   2  24
TORSDOF 4
ENDMDL
MODEL 3
REMARK VINA RESULT:      -6.8     13.635     16.054
REMARK SMILES Cc1ccccc1C(=O)Oc1ccc(N2C(=O)[C@H]3[C@@H]4C=C[C@@H]([C@@H]5C[C@H]45)[C@@H]3C2=O)cc1
REMARK SMILES IDX 9 1 8 2 10 3 11 4 14 5 13 6 29 7 12 8 30 9 15 10 17 11 16 12
REMARK SMILES IDX 18 13 27 14 19 15 26 16 28 17 25 18 20 19 22 20 23 21 24 22
REMARK SMILES IDX 21 23 7 24 2 25 6 26 3 27 5 28 4 29 1 30
REMARK H PARENT
ROOT
ATOM      1  O   UNL     1     105.583  97.589 112.292  1.00  0.00    -0.246 OA
ATOM      2  C   UNL     1     105.248  96.639 112.983  1.00  0.00     0.343 C 
ENDROOT
BRANCH   2   3
ATOM      3  O   UNL     1     104.018  96.499 113.630  1.00  0.00    -0.423 OA
BRANCH   3   4
ATOM      4  C   UNL     1     103.022  96.013 112.842  1.00  0.00     0.131 A 
ATOM      5  C   UNL     1     100.977  95.017 111.226  1.00  0.00     0.052 A 
ATOM      6  C   UNL     1     100.959  96.352 111.631  1.00  0.00     0.031 A 
ATOM      7  C   UNL     1     102.017  94.180 111.629  1.00  0.00     0.031 A 
ATOM      8  C   UNL     1     101.981  96.850 112.439  1.00  0.00     0.049 A 
ATOM      9  C   UNL     1     103.039  94.678 112.437  1.00  0.00     0.049 A 
BRANCH   5  10
ATOM     10  N   UNL     1      99.957  94.521 110.422  1.00  0.00    -0.250 N 
ATOM     11  O   UNL     1      98.917  92.919 111.872  1.00  0.00    -0.274 OA
ATOM     12  C   UNL     1      99.083  93.459 110.795  1.00  0.00     0.238 C 
ATOM     13  C   UNL     1      98.488  93.067 109.477  1.00  0.00     0.100 C 
ATOM     14  C   UNL     1      99.651  95.010 109.118  1.00  0.00     0.238 C 
ATOM     15  C   UNL     1      97.338  92.132 109.065  1.00  0.00     0.028 C 
ATOM     16  C   UNL     1      98.270  94.468 108.894  1.00  0.00     0.100 C 
ATOM     17  O   UNL     1     100.279  95.759 108.393  1.00  0.00    -0.274 OA
ATOM     18  C   UNL     1      95.944  92.763 109.054  1.00  0.00     0.001 C 
ATOM     19  C   UNL     1      97.689  91.927 107.569  1.00  0.00    -0.026 C 
ATOM     20  C   UNL     1      97.375  94.333 107.657  1.00  0.00     0.028 C 
ATOM     21  C   UNL     1      95.942  94.048 108.220  1.00  0.00     0.001 C 
ATOM     22  C   UNL     1      95.516  94.052 109.684  1.00  0.00     0.009 C 
ATOM     23  C   UNL     1      97.767  93.078 106.864  1.00  0.00    -0.026 C 
ENDBRANCH   5  10
ENDBRANCH   3   4
ENDBRANCH   2   3
BRANCH   2  24
ATOM     24  C   UNL     1     106.121  95.463 113.228  1.00  0.00     0.063 A 
ATOM     25  C   UNL     1     106.747  94.797 112.174  1.00  0.00    -0.037 A 
ATOM     26  C   UNL     1     106.310  95.027 114.539  1.00  0.00     0.016 A 
ATOM     27  C   UNL     1     107.561  93.695 112.430  1.00  0.00     0.004 A 
ATOM     28  C   UNL     1     107.126  93.924 114.796  1.00  0.00     0.001 A 
ATOM     29  C   UNL     1     107.752  93.258 113.742  1.00  0.00     0.000 A 
ATOM     30  C   UNL     1     106.560  95.243 110.760  1.00  0.00     0.045 C 
ENDBRANCH   2  24
TORSDOF 4
ENDMDL
MODEL 4
REMARK VINA RESULT:      -6.8      0.588      2.089
REMARK SMILES Cc1ccccc1C(=O)Oc1ccc(N2C(=O)[C@H]3[C@@H]4C=C[C@@H]([C@@H]5C[C@H]45)[C@@H]3C2=O)cc1
REMARK SMILES IDX 9 1 8 2 10 3 11 4 14 5 13 6 29 7 12 8 30 9 15 10 17 11 16 12
REMARK SMILES IDX 18 13 27 14 19 15 26 16 28 17 25 18 20 19 22 20 23 21 24 22
REMARK SMILES IDX 21 23 7 24 2 25 6 26 3 27 5 28 4 29 1 30
REMARK H PARENT
ROOT
ATOM      1  O   UNL     1      96.325 105.300 106.409  1.00  0.00    -0.246 OA
ATOM      2  C   UNL     1      96.425 106.362 105.815  1.00  0.00     0.343 C 
ENDROOT
BRANCH   2   3
ATOM      3  O   UNL     1      96.316 107.629 106.392  1.00  0.00    -0.423 OA
BRANCH   3   4
ATOM      4  C   UNL     1      96.519 107.652 107.737  1.00  0.00     0.131 A 
ATOM      5  C   UNL     1      96.937 107.699 110.496  1.00  0.00     0.052 A 
ATOM      6  C   UNL     1      97.975 107.329 109.639  1.00  0.00     0.031 A 
ATOM      7  C   UNL     1      95.691 108.045 109.973  1.00  0.00     0.031 A 
ATOM      8  C   UNL     1      97.765 107.306 108.260  1.00  0.00     0.049 A 
ATOM      9  C   UNL     1      95.483 108.021 108.594  1.00  0.00     0.049 A 
BRANCH   5  10
ATOM     10  N   UNL     1      97.145 107.721 111.870  1.00  0.00    -0.250 N 
ATOM     11  O   UNL     1      96.937 110.058 112.365  1.00  0.00    -0.274 OA
ATOM     12  C   UNL     1      97.210 108.908 112.654  1.00  0.00     0.238 C 
ATOM     13  C   UNL     1      97.835 108.411 113.921  1.00  0.00     0.100 C 
ATOM     14  C   UNL     1      97.319 106.557 112.676  1.00  0.00     0.238 C 
ATOM     15  C   UNL     1      98.071 109.036 115.307  1.00  0.00     0.028 C 
ATOM     16  C   UNL     1      97.069 107.090 114.056  1.00  0.00     0.100 C 
ATOM     17  O   UNL     1      97.514 105.401 112.352  1.00  0.00    -0.274 OA
ATOM     18  C   UNL     1      96.912 108.904 116.298  1.00  0.00     0.001 C 
ATOM     19  C   UNL     1      99.161 108.074 115.847  1.00  0.00    -0.026 C 
ATOM     20  C   UNL     1      97.321 106.538 115.463  1.00  0.00     0.028 C 
ATOM     21  C   UNL     1      96.467 107.443 116.415  1.00  0.00     0.001 C 
ATOM     22  C   UNL     1      95.491 108.538 116.003  1.00  0.00     0.009 C 
ATOM     23  C   UNL     1      98.783 106.776 115.865  1.00  0.00    -0.026 C 
ENDBRANCH   5  10
ENDBRANCH   3   4
ENDBRANCH   2   3
BRANCH   2  24
ATOM     24  C   UNL     1      96.695 106.458 104.357  1.00  0.00     0.063 A 
ATOM     25  C   UNL     1      98.000 106.462 103.865  1.00  0.00    -0.037 A 
ATOM     26  C   UNL     1      95.617 106.543 103.477  1.00  0.00     0.016 A 
ATOM     27  C   UNL     1      98.228 106.553 102.492  1.00  0.00     0.004 A 
ATOM     28  C   UNL     1      95.844 106.634 102.103  1.00  0.00     0.001 A 
ATOM     29  C   UNL     1      97.149 106.638 101.610  1.00  0.00     0.000 A 
ATOM     30  C   UNL     1      99.173 106.372 104.786  1.00  0.00     0.045 C 
ENDBRANCH   2  24
TORSDOF 4
ENDMDL
MODEL 5
REMARK VINA RESULT:      -6.7     13.470     15.852
REMARK SMILES Cc1ccccc1C(=O)Oc1ccc(N2C(=O)[C@H]3[C@@H]4C=C[C@@H]([C@@H]5C[C@H]45)[C@@H]3C2=O)cc1
REMARK SMILES IDX 9 1 8 2 10 3 11 4 14 5 13 6 29 7 12 8 30 9 15 10 17 11 16 12
REMARK SMILES IDX 18 13 27 14 19 15 26 16 28 17 25 18 20 19 22 20 23 21 24 22
REMARK SMILES IDX 21 23 7 24 2 25 6 26 3 27 5 28 4 29 1 30
REMARK H PARENT
ROOT
ATOM      1  O   UNL     1     105.307  97.880 112.450  1.00  0.00    -0.246 OA
ATOM      2  C   UNL     1     105.067  96.714 112.723  1.00  0.00     0.343 C 
ENDROOT
BRANCH   2   3
ATOM      3  O   UNL     1     103.954  96.258 113.431  1.00  0.00    -0.423 OA
BRANCH   3   4
ATOM      4  C   UNL     1     102.913  95.864 112.648  1.00  0.00     0.131 A 
ATOM      5  C   UNL     1     100.779  95.057 111.041  1.00  0.00     0.052 A 
ATOM      6  C   UNL     1     101.731  94.125 111.459  1.00  0.00     0.031 A 
ATOM      7  C   UNL     1     100.896  96.392 111.427  1.00  0.00     0.031 A 
ATOM      8  C   UNL     1     102.797  94.529 112.262  1.00  0.00     0.049 A 
ATOM      9  C   UNL     1     101.962  96.795 112.230  1.00  0.00     0.049 A 
BRANCH   5  10
ATOM     10  N   UNL     1      99.718  94.654 110.240  1.00  0.00    -0.250 N 
ATOM     11  O   UNL     1     100.265  95.678 108.141  1.00  0.00    -0.274 OA
ATOM     12  C   UNL     1      99.521  95.077 108.893  1.00  0.00     0.238 C 
ATOM     13  C   UNL     1      98.090  94.704 108.656  1.00  0.00     0.100 C 
ATOM     14  C   UNL     1      98.685  93.764 110.659  1.00  0.00     0.238 C 
ATOM     15  C   UNL     1      97.194  94.670 107.405  1.00  0.00     0.028 C 
ATOM     16  C   UNL     1      98.085  93.339 109.352  1.00  0.00     0.100 C 
ATOM     17  O   UNL     1      98.406  93.355 111.770  1.00  0.00    -0.274 OA
ATOM     18  C   UNL     1      97.248  93.378 106.587  1.00  0.00     0.001 C 
ATOM     19  C   UNL     1      95.799  94.648 108.082  1.00  0.00    -0.026 C 
ATOM     20  C   UNL     1      96.789  92.616 108.969  1.00  0.00     0.028 C 
ATOM     21  C   UNL     1      96.998  92.161 107.486  1.00  0.00     0.001 C 
ATOM     22  C   UNL     1      98.273  92.289 106.661  1.00  0.00     0.009 C 
ATOM     23  C   UNL     1      95.624  93.615 108.937  1.00  0.00    -0.026 C 
ENDBRANCH   5  10
ENDBRANCH   3   4
ENDBRANCH   2   3
BRANCH   2  24
ATOM     24  C   UNL     1     105.944  95.586 112.316  1.00  0.00     0.063 A 
ATOM     25  C   UNL     1     106.511  94.735 113.264  1.00  0.00    -0.037 A 
ATOM     26  C   UNL     1     106.197  95.385 110.959  1.00  0.00     0.016 A 
ATOM     27  C   UNL     1     107.331  93.683 112.857  1.00  0.00     0.004 A 
ATOM     28  C   UNL     1     107.017  94.333 110.551  1.00  0.00     0.001 A 
ATOM     29  C   UNL     1     107.584  93.481 111.499  1.00  0.00     0.000 A 
ATOM     30  C   UNL     1     106.258  94.928 114.724  1.00  0.00     0.045 C 
ENDBRANCH   2  24
TORSDOF 4
ENDMDL
MODEL 6
REMARK VINA RESULT:      -6.7     10.788     13.805
REMARK SMILES Cc1ccccc1C(=O)Oc1ccc(N2C(=O)[C@H]3[C@@H]4C=C[C@@H]([C@@H]5C[C@H]45)[C@@H]3C2=O)cc1
REMARK SMILES IDX 9 1 8 2 10 3 11 4 14 5 13 6 29 7 12 8 30 9 15 10 17 11 16 12
REMARK SMILES IDX 18 13 27 14 19 15 26 16 28 17 25 18 20 19 22 20 23 21 24 22
REMARK SMILES IDX 21 23 7 24 2 25 6 26 3 27 5 28 4 29 1 30
REMARK H PARENT
ROOT
ATOM      1  O   UNL     1      97.122  99.629 116.603  1.00  0.00    -0.246 OA
ATOM      2  C   UNL     1      98.074 100.390 116.531  1.00  0.00     0.343 C 
ENDROOT
BRANCH   2   3
ATOM      3  O   UNL     1      99.294 100.231 117.193  1.00  0.00    -0.423 OA
BRANCH   3   4
ATOM      4  C   UNL     1     100.172  99.407 116.560  1.00  0.00     0.131 A 
ATOM      5  C   UNL     1     101.974  97.718 115.262  1.00  0.00     0.052 A 
ATOM      6  C   UNL     1     102.433  98.629 116.215  1.00  0.00     0.031 A 
ATOM      7  C   UNL     1     100.615  97.653 114.958  1.00  0.00     0.031 A 
ATOM      8  C   UNL     1     101.532  99.473 116.863  1.00  0.00     0.049 A 
ATOM      9  C   UNL     1      99.714  98.497 115.607  1.00  0.00     0.049 A 
BRANCH   5  10
ATOM     10  N   UNL     1     102.872  96.878 114.615  1.00  0.00    -0.250 N 
ATOM     11  O   UNL     1     102.401  97.332 112.307  1.00  0.00    -0.274 OA
ATOM     12  C   UNL     1     102.936  96.704 113.202  1.00  0.00     0.238 C 
ATOM     13  C   UNL     1     103.744  95.449 113.078  1.00  0.00     0.100 C 
ATOM     14  C   UNL     1     103.849  96.080 115.279  1.00  0.00     0.238 C 
ATOM     15  C   UNL     1     104.391  94.713 111.892  1.00  0.00     0.028 C 
ATOM     16  C   UNL     1     104.789  95.737 114.161  1.00  0.00     0.100 C 
ATOM     17  O   UNL     1     103.975  95.815 116.460  1.00  0.00    -0.274 OA
ATOM     18  C   UNL     1     105.799  95.180 111.513  1.00  0.00     0.001 C 
ATOM     19  C   UNL     1     104.599  93.316 112.531  1.00  0.00    -0.026 C 
ATOM     20  C   UNL     1     105.922  94.716 114.009  1.00  0.00     0.028 C 
ATOM     21  C   UNL     1     106.716  95.174 112.740  1.00  0.00     0.001 C 
ATOM     22  C   UNL     1     106.489  96.443 111.926  1.00  0.00     0.009 C 
ATOM     23  C   UNL     1     105.341  93.338 113.661  1.00  0.00    -0.026 C 
ENDBRANCH   5  10
ENDBRANCH   3   4
ENDBRANCH   2   3
BRANCH   2  24
ATOM     24  C   UNL     1      98.073 101.619 115.696  1.00  0.00     0.063 A 
ATOM     25  C   UNL     1      97.466 101.638 114.441  1.00  0.00    -0.037 A 
ATOM     26  C   UNL     1      98.692 102.768 116.189  1.00  0.00     0.016 A 
ATOM     27  C   UNL     1      97.479 102.804 113.676  1.00  0.00     0.004 A 
ATOM     28  C   UNL     1      98.705 103.935 115.425  1.00  0.00     0.001 A 
ATOM     29  C   UNL     1      98.098 103.954 114.169  1.00  0.00     0.000 A 
ATOM     30  C   UNL     1      96.796 100.421 113.890  1.00  0.00     0.045 C 
ENDBRANCH   2  24
TORSDOF 4
ENDMDL
MODEL 7
REMARK VINA RESULT:      -6.7     13.747     15.797
REMARK SMILES Cc1ccccc1C(=O)Oc1ccc(N2C(=O)[C@H]3[C@@H]4C=C[C@@H]([C@@H]5C[C@H]45)[C@@H]3C2=O)cc1
REMARK SMILES IDX 9 1 8 2 10 3 11 4 14 5 13 6 29 7 12 8 30 9 15 10 17 11 16 12
REMARK SMILES IDX 18 13 27 14 19 15 26 16 28 17 25 18 20 19 22 20 23 21 24 22
REMARK SMILES IDX 21 23 7 24 2 25 6 26 3 27 5 28 4 29 1 30
REMARK H PARENT
ROOT
ATOM      1  O   UNL     1     107.014  94.096 115.538  1.00  0.00    -0.246 OA
ATOM      2  C   UNL     1     106.381  93.699 114.571  1.00  0.00     0.343 C 
ENDROOT
BRANCH   2   3
ATOM      3  O   UNL     1     105.421  92.686 114.589  1.00  0.00    -0.423 OA
BRANCH   3   4
ATOM      4  C   UNL     1     104.178  93.084 114.207  1.00  0.00     0.131 A 
ATOM      5  C   UNL     1     101.626  93.901 113.426  1.00  0.00     0.052 A 
ATOM      6  C   UNL     1     102.154  94.329 114.646  1.00  0.00     0.031 A 
ATOM      7  C   UNL     1     102.375  93.066 112.598  1.00  0.00     0.031 A 
ATOM      8  C   UNL     1     103.429  93.920 115.036  1.00  0.00     0.049 A 
ATOM      9  C   UNL     1     103.650  92.658 112.989  1.00  0.00     0.049 A 
BRANCH   5  10
ATOM     10  N   UNL     1     100.355  94.308 113.038  1.00  0.00    -0.250 N 
ATOM     11  O   UNL     1     100.802  96.442 112.039  1.00  0.00    -0.274 OA
ATOM     12  C   UNL     1     100.058  95.577 112.461  1.00  0.00     0.238 C 
ATOM     13  C   UNL     1      98.570  95.649 112.618  1.00  0.00     0.100 C 
ATOM     14  C   UNL     1      99.181  93.509 113.165  1.00  0.00     0.238 C 
ATOM     15  C   UNL     1      97.491  96.611 112.090  1.00  0.00     0.028 C 
ATOM     16  C   UNL     1      98.226  94.204 112.241  1.00  0.00     0.100 C 
ATOM     17  O   UNL     1      99.001  92.470 113.773  1.00  0.00    -0.274 OA
ATOM     18  C   UNL     1      96.928  96.279 110.706  1.00  0.00     0.001 C 
ATOM     19  C   UNL     1      96.339  96.278 113.073  1.00  0.00    -0.026 C 
ATOM     20  C   UNL     1      96.710  94.118 112.028  1.00  0.00     0.028 C 
ATOM     21  C   UNL     1      96.451  94.824 110.654  1.00  0.00     0.001 C 
ATOM     22  C   UNL     1      97.501  95.349 109.682  1.00  0.00     0.009 C 
ATOM     23  C   UNL     1      95.986  94.973 113.077  1.00  0.00    -0.026 C 
ENDBRANCH   5  10
ENDBRANCH   3   4
ENDBRANCH   2   3
BRANCH   2  24
ATOM     24  C   UNL     1     106.540  94.265 113.206  1.00  0.00     0.063 A 
ATOM     25  C   UNL     1     106.217  95.594 112.934  1.00  0.00    -0.037 A 
ATOM     26  C   UNL     1     107.022  93.442 112.189  1.00  0.00     0.016 A 
ATOM     27  C   UNL     1     106.374  96.101 111.645  1.00  0.00     0.004 A 
ATOM     28  C   UNL     1     107.180  93.948 110.898  1.00  0.00     0.001 A 
ATOM     29  C   UNL     1     106.857  95.278 110.626  1.00  0.00     0.000 A 
ATOM     30  C   UNL     1     105.698  96.497 114.006  1.00  0.00     0.045 C 
ENDBRANCH   2  24
TORSDOF 4
ENDMDL
MODEL 8
REMARK VINA RESULT:      -6.7     13.164     15.547
REMARK SMILES Cc1ccccc1C(=O)Oc1ccc(N2C(=O)[C@H]3[C@@H]4C=C[C@@H]([C@@H]5C[C@H]45)[C@@H]3C2=O)cc1
REMARK SMILES IDX 9 1 8 2 10 3 11 4 14 5 13 6 29 7 12 8 30 9 15 10 17 11 16 12
REMARK SMILES IDX 18 13 27 14 19 15 26 16 28 17 25 18 20 19 22 20 23 21 24 22
REMARK SMILES IDX 21 23 7 24 2 25 6 26 3 27 5 28 4 29 1 30
REMARK H PARENT
ROOT
ATOM      1  O   UNL     1     105.710  97.784 112.647  1.00  0.00    -0.246 OA
ATOM      2  C   UNL     1     105.346  96.817 113.299  1.00  0.00     0.343 C 
ENDROOT
BRANCH   2   3
ATOM      3  O   UNL     1     104.169  96.738 114.047  1.00  0.00    -0.423 OA
BRANCH   3   4
ATOM      4  C   UNL     1     103.078  96.346 113.335  1.00  0.00     0.131 A 
ATOM      5  C   UNL     1     100.840  95.543 111.874  1.00  0.00     0.052 A 
ATOM      6  C   UNL     1     101.478  96.746 111.569  1.00  0.00     0.031 A 
ATOM      7  C   UNL     1     101.321  94.742 112.910  1.00  0.00     0.031 A 
ATOM      8  C   UNL     1     102.597  97.147 112.299  1.00  0.00     0.049 A 
ATOM      9  C   UNL     1     102.439  95.144 113.639  1.00  0.00     0.049 A 
BRANCH   5  10
ATOM     10  N   UNL     1      99.724  95.145 111.147  1.00  0.00    -0.250 N 
ATOM     11  O   UNL     1      97.995  96.499 112.110  1.00  0.00    -0.274 OA
ATOM     12  C   UNL     1      98.397  95.599 111.397  1.00  0.00     0.238 C 
ATOM     13  C   UNL     1      97.577  94.595 110.647  1.00  0.00     0.100 C 
ATOM     14  C   UNL     1      99.761  94.229 110.055  1.00  0.00     0.238 C 
ATOM     15  C   UNL     1      96.085  94.499 110.282  1.00  0.00     0.028 C 
ATOM     16  C   UNL     1      98.442  94.482 109.387  1.00  0.00     0.100 C 
ATOM     17  O   UNL     1     100.655  93.496 109.675  1.00  0.00    -0.274 OA
ATOM     18  C   UNL     1      95.674  95.206 108.989  1.00  0.00     0.001 C 
ATOM     19  C   UNL     1      95.993  92.987 109.951  1.00  0.00    -0.026 C 
ATOM     20  C   UNL     1      97.634  93.730 108.323  1.00  0.00     0.028 C 
ATOM     21  C   UNL     1      96.562  94.757 107.824  1.00  0.00     0.001 C 
ATOM     22  C   UNL     1      96.450  96.225 108.214  1.00  0.00     0.009 C 
ATOM     23  C   UNL     1      96.843  92.589 108.978  1.00  0.00    -0.026 C 
ENDBRANCH   5  10
ENDBRANCH   3   4
ENDBRANCH   2   3
BRANCH   2  24
ATOM     24  C   UNL     1     106.120  95.551 113.380  1.00  0.00     0.063 A 
ATOM     25  C   UNL     1     106.602  94.926 112.231  1.00  0.00    -0.037 A 
ATOM     26  C   UNL     1     106.361  94.989 114.633  1.00  0.00     0.016 A 
ATOM     27  C   UNL     1     107.325  93.738 112.333  1.00  0.00     0.004 A 
ATOM     28  C   UNL     1     107.085  93.801 114.737  1.00  0.00     0.001 A 
ATOM     29  C   UNL     1     107.568  93.176 113.587  1.00  0.00     0.000 A 
ATOM     30  C   UNL     1     106.357  95.507 110.876  1.00  0.00     0.045 C 
ENDBRANCH   2  24
TORSDOF 4
ENDMDL
MODEL 9
REMARK VINA RESULT:      -6.6     13.456     16.123
REMARK SMILES Cc1ccccc1C(=O)Oc1ccc(N2C(=O)[C@H]3[C@@H]4C=C[C@@H]([C@@H]5C[C@H]45)[C@@H]3C2=O)cc1
REMARK SMILES IDX 9 1 8 2 10 3 11 4 14 5 13 6 29 7 12 8 30 9 15 10 17 11 16 12
REMARK SMILES IDX 18 13 27 14 19 15 26 16 28 17 25 18 20 19 22 20 23 21 24 22
REMARK SMILES IDX 21 23 7 24 2 25 6 26 3 27 5 28 4 29 1 30
REMARK H PARENT
ROOT
ATOM      1  O   UNL     1     104.434  97.428 112.162  1.00  0.00    -0.246 OA
ATOM      2  C   UNL     1     104.355  96.277 112.564  1.00  0.00     0.343 C 
ENDROOT
BRANCH   2   3
ATOM      3  O   UNL     1     103.211  95.679 113.096  1.00  0.00    -0.423 OA
BRANCH   3   4
ATOM      4  C   UNL     1     102.272  95.343 112.171  1.00  0.00     0.131 A 
ATOM      5  C   UNL     1     100.346  94.653 110.274  1.00  0.00     0.052 A 
ATOM      6  C   UNL     1     100.483  95.982 110.678  1.00  0.00     0.031 A 
ATOM      7  C   UNL     1     101.171  93.670 110.819  1.00  0.00     0.031 A 
ATOM      8  C   UNL     1     101.447  96.326 111.626  1.00  0.00     0.049 A 
ATOM      9  C   UNL     1     102.134  94.015 111.767  1.00  0.00     0.049 A 
BRANCH   5  10
ATOM     10  N   UNL     1      99.385  94.310 109.330  1.00  0.00    -0.250 N 
ATOM     11  O   UNL     1      97.351  94.587 110.569  1.00  0.00    -0.274 OA
ATOM     12  C   UNL     1      97.988  94.227 109.597  1.00  0.00     0.238 C 
ATOM     13  C   UNL     1      97.490  93.454 108.415  1.00  0.00     0.100 C 
ATOM     14  C   UNL     1      99.671  93.998 107.968  1.00  0.00     0.238 C 
ATOM     15  C   UNL     1      96.087  93.114 107.882  1.00  0.00     0.028 C 
ATOM     16  C   UNL     1      98.323  94.135 107.323  1.00  0.00     0.100 C 
ATOM     17  O   UNL     1     100.735  93.777 107.421  1.00  0.00    -0.274 OA
ATOM     18  C   UNL     1      95.458  94.160 106.958  1.00  0.00     0.001 C 
ATOM     19  C   UNL     1      96.442  91.928 106.948  1.00  0.00    -0.026 C 
ATOM     20  C   UNL     1      97.755  93.716 105.963  1.00  0.00     0.028 C 
ATOM     21  C   UNL     1      96.416  94.516 105.817  1.00  0.00     0.001 C 
ATOM     22  C   UNL     1      95.880  95.583 106.763  1.00  0.00     0.009 C 
ATOM     23  C   UNL     1      97.353  92.235 105.998  1.00  0.00    -0.026 C 
ENDBRANCH   5  10
ENDBRANCH   3   4
ENDBRANCH   2   3
BRANCH   2  24
ATOM     24  C   UNL     1     105.494  95.324 112.531  1.00  0.00     0.063 A 
ATOM     25  C   UNL     1     106.136  94.926 113.703  1.00  0.00    -0.037 A 
ATOM     26  C   UNL     1     105.917  94.825 111.300  1.00  0.00     0.016 A 
ATOM     27  C   UNL     1     107.203  94.030 113.645  1.00  0.00     0.004 A 
ATOM     28  C   UNL     1     106.985  93.928 111.241  1.00  0.00     0.001 A 
ATOM     29  C   UNL     1     107.627  93.529 112.413  1.00  0.00     0.000 A 
ATOM     30  C   UNL     1     105.703  95.446 115.035  1.00  0.00     0.045 C 
ENDBRANCH   2  24
TORSDOF 4
ENDMDL
MODEL 10
REMARK VINA RESULT:      -6.6     12.423     14.889
REMARK SMILES Cc1ccccc1C(=O)Oc1ccc(N2C(=O)[C@H]3[C@@H]4C=C[C@@H]([C@@H]5C[C@H]45)[C@@H]3C2=O)cc1
REMARK SMILES IDX 9 1 8 2 10 3 11 4 14 5 13 6 29 7 12 8 30 9 15 10 17 11 16 12
REMARK SMILES IDX 18 13 27 14 19 15 26 16 28 17 25 18 20 19 22 20 23 21 24 22
REMARK SMILES IDX 21 23 7 24 2 25 6 26 3 27 5 28 4 29 1 30
REMARK H PARENT
ROOT
ATOM      1  O   UNL     1      96.404  96.464 116.013  1.00  0.00    -0.246 OA
ATOM      2  C   UNL     1      96.837  96.973 114.991  1.00  0.00     0.343 C 
ENDROOT
BRANCH   2   3
ATOM      3  O   UNL     1      97.195  96.286 113.829  1.00  0.00    -0.423 OA
BRANCH   3   4
ATOM      4  C   UNL     1      98.510  95.943 113.763  1.00  0.00     0.131 A 
ATOM      5  C   UNL     1     101.207  95.240 113.629  1.00  0.00     0.052 A 
ATOM      6  C   UNL     1     100.409  94.752 114.665  1.00  0.00     0.031 A 
ATOM      7  C   UNL     1     100.656  96.079 112.660  1.00  0.00     0.031 A 
ATOM      8  C   UNL     1      99.061  95.104 114.732  1.00  0.00     0.049 A 
ATOM      9  C   UNL     1      99.308  96.430 112.728  1.00  0.00     0.049 A 
BRANCH   5  10
ATOM     10  N   UNL     1     102.551  94.891 113.563  1.00  0.00    -0.250 N 
ATOM     11  O   UNL     1     102.515  93.081 111.989  1.00  0.00    -0.274 OA
ATOM     12  C   UNL     1     103.059  93.789 112.815  1.00  0.00     0.238 C 
ATOM     13  C   UNL     1     104.429  93.623 113.398  1.00  0.00     0.100 C 
ATOM     14  C   UNL     1     103.598  95.589 114.233  1.00  0.00     0.238 C 
ATOM     15  C   UNL     1     105.654  92.776 113.010  1.00  0.00     0.028 C 
ATOM     16  C   UNL     1     104.817  95.102 113.507  1.00  0.00     0.100 C 
ATOM     17  O   UNL     1     103.543  96.441 115.099  1.00  0.00    -0.274 OA
ATOM     18  C   UNL     1     106.601  93.411 111.989  1.00  0.00     0.001 C 
ATOM     19  C   UNL     1     106.435  92.816 114.349  1.00  0.00    -0.026 C 
ATOM     20  C   UNL     1     106.320  95.177 113.796  1.00  0.00     0.028 C 
ATOM     21  C   UNL     1     107.015  94.816 112.440  1.00  0.00     0.001 C 
ATOM     22  C   UNL     1     106.334  94.583 111.096  1.00  0.00     0.009 C 
ATOM     23  C   UNL     1     106.720  94.066 114.777  1.00  0.00    -0.026 C 
ENDBRANCH   5  10
ENDBRANCH   3   4
ENDBRANCH   2   3
BRANCH   2  24
ATOM     24  C   UNL     1      97.037  98.437 114.833  1.00  0.00     0.063 A 
ATOM     25  C   UNL     1      98.015  99.114 115.561  1.00  0.00    -0.037 A 
ATOM     26  C   UNL     1      96.227  99.134 113.937  1.00  0.00     0.016 A 
ATOM     27  C   UNL     1      98.183 100.488 115.395  1.00  0.00     0.004 A 
ATOM     28  C   UNL     1      96.395 100.509 113.770  1.00  0.00     0.001 A 
ATOM     29  C   UNL     1      97.373 101.186 114.498  1.00  0.00     0.000 A 
ATOM     30  C   UNL     1      98.896  98.391 116.528  1.00  0.00     0.045 C 
ENDBRANCH   2  24
TORSDOF 4
ENDMDL
MODEL 11
REMARK VINA RESULT:      -6.6     12.985     15.142
REMARK SMILES Cc1ccccc1C(=O)Oc1ccc(N2C(=O)[C@H]3[C@@H]4C=C[C@@H]([C@@H]5C[C@H]45)[C@@H]3C2=O)cc1
REMARK SMILES IDX 9 1 8 2 10 3 11 4 14 5 13 6 29 7 12 8 30 9 15 10 17 11 16 12
REMARK SMILES IDX 18 13 27 14 19 15 26 16 28 17 25 18 20 19 22 20 23 21 24 22
REMARK SMILES IDX 21 23 7 24 2 25 6 26 3 27 5 28 4 29 1 30
REMARK H PARENT
ROOT
ATOM      1  O   UNL     1     105.916  97.123 114.792  1.00  0.00    -0.246 OA
ATOM      2  C   UNL     1     105.520  96.055 114.349  1.00  0.00     0.343 C 
ENDROOT
BRANCH   2   3
ATOM      3  O   UNL     1     104.519  95.262 114.913  1.00  0.00    -0.423 OA
BRANCH   3   4
ATOM      4  C   UNL     1     103.350  95.256 114.218  1.00  0.00     0.131 A 
ATOM      5  C   UNL     1     100.951  95.243 112.792  1.00  0.00     0.052 A 
ATOM      6  C   UNL     1     101.721  94.082 112.875  1.00  0.00     0.031 A 
ATOM      7  C   UNL     1     101.382  96.411 113.422  1.00  0.00     0.031 A 
ATOM      8  C   UNL     1     102.919  94.089 113.588  1.00  0.00     0.049 A 
ATOM      9  C   UNL     1     102.581  96.417 114.135  1.00  0.00     0.049 A 
BRANCH   5  10
ATOM     10  N   UNL     1      99.758  95.237 112.080  1.00  0.00    -0.250 N 
ATOM     11  O   UNL     1     100.430  96.169 109.975  1.00  0.00    -0.274 OA
ATOM     12  C   UNL     1      99.598  95.780 110.773  1.00  0.00     0.238 C 
ATOM     13  C   UNL     1      98.107  95.882 110.658  1.00  0.00     0.100 C 
ATOM     14  C   UNL     1      98.536  94.683 112.564  1.00  0.00     0.238 C 
ATOM     15  C   UNL     1      97.150  96.201 109.496  1.00  0.00     0.028 C 
ATOM     16  C   UNL     1      97.733  94.544 111.305  1.00  0.00     0.100 C 
ATOM     17  O   UNL     1      98.231  94.312 113.682  1.00  0.00    -0.274 OA
ATOM     18  C   UNL     1      96.735  95.007 108.634  1.00  0.00     0.001 C 
ATOM     19  C   UNL     1      95.876  96.567 110.300  1.00  0.00    -0.026 C 
ATOM     20  C   UNL     1      96.250  94.279 111.021  1.00  0.00     0.028 C 
ATOM     21  C   UNL     1      96.190  93.874 109.510  1.00  0.00     0.001 C 
ATOM     22  C   UNL     1      97.372  93.653 108.574  1.00  0.00     0.009 C 
ATOM     23  C   UNL     1      95.455  95.588 111.132  1.00  0.00    -0.026 C 
ENDBRANCH   5  10
ENDBRANCH   3   4
ENDBRANCH   2   3
BRANCH   2  24
ATOM     24  C   UNL     1     106.055  95.441 113.106  1.00  0.00     0.063 A 
ATOM     25  C   UNL     1     105.919  96.075 111.872  1.00  0.00    -0.037 A 
ATOM     26  C   UNL     1     106.703  94.209 113.190  1.00  0.00     0.016 A 
ATOM     27  C   UNL     1     106.429  95.478 110.720  1.00  0.00     0.004 A 
ATOM     28  C   UNL     1     107.214  93.610 112.038  1.00  0.00     0.001 A 
ATOM     29  C   UNL     1     107.078  94.245 110.803  1.00  0.00     0.000 A 
ATOM     30  C   UNL     1     105.229  97.396 111.754  1.00  0.00     0.045 C 
ENDBRANCH   2  24
TORSDOF 4
ENDMDL
MODEL 12
REMARK VINA RESULT:      -6.6     12.275     14.546
REMARK SMILES Cc1ccccc1C(=O)Oc1ccc(N2C(=O)[C@H]3[C@@H]4C=C[C@@H]([C@@H]5C[C@H]45)[C@@H]3C2=O)cc1
REMARK SMILES IDX 9 1 8 2 10 3 11 4 14 5 13 6 29 7 12 8 30 9 15 10 17 11 16 12
REMARK SMILES IDX 18 13 27 14 19 15 26 16 28 17 25 18 20 19 22 20 23 21 24 22
REMARK SMILES IDX 21 23 7 24 2 25 6 26 3 27 5 28 4 29 1 30
REMARK H PARENT
ROOT
ATOM      1  O   UNL     1     106.710  96.795 112.184  1.00  0.00    -0.246 OA
ATOM      2  C   UNL     1     106.047  95.849 112.580  1.00  0.00     0.343 C 
ENDROOT
BRANCH   2   3
ATOM      3  O   UNL     1     105.089  95.159 111.834  1.00  0.00    -0.423 OA
BRANCH   3   4
ATOM      4  C   UNL     1     103.802  95.455 112.163  1.00  0.00     0.131 A 
ATOM      5  C   UNL     1     101.163  96.062 112.835  1.00  0.00     0.052 A 
ATOM      6  C   UNL     1     101.600  94.736 112.847  1.00  0.00     0.031 A 
ATOM      7  C   UNL     1     102.047  97.083 112.488  1.00  0.00     0.031 A 
ATOM      8  C   UNL     1     102.919  94.433 112.510  1.00  0.00     0.049 A 
ATOM      9  C   UNL     1     103.366  96.779 112.152  1.00  0.00     0.049 A 
BRANCH   5  10
ATOM     10  N   UNL     1      99.848  96.363 113.170  1.00  0.00    -0.250 N 
ATOM     11  O   UNL     1     100.100  97.320 115.354  1.00  0.00    -0.274 OA
ATOM     12  C   UNL     1      99.439  96.883 114.432  1.00  0.00     0.238 C 
ATOM     13  C   UNL     1      97.961  96.639 114.404  1.00  0.00     0.100 C 
ATOM     14  C   UNL     1      98.736  96.194 112.294  1.00  0.00     0.238 C 
ATOM     15  C   UNL     1      96.794  97.074 115.309  1.00  0.00     0.028 C 
ATOM     16  C   UNL     1      97.686  97.040 112.950  1.00  0.00     0.100 C 
ATOM     17  O   UNL     1      98.658  95.609 111.230  1.00  0.00    -0.274 OA
ATOM     18  C   UNL     1      96.172  98.433 114.979  1.00  0.00     0.001 C 
ATOM     19  C   UNL     1      95.726  96.037 114.875  1.00  0.00    -0.026 C 
ATOM     20  C   UNL     1      96.169  97.168 112.773  1.00  0.00     0.028 C 
ATOM     21  C   UNL     1      95.785  98.502 113.498  1.00  0.00     0.001 C 
ATOM     22  C   UNL     1      96.740  99.516 114.115  1.00  0.00     0.009 C 
ATOM     23  C   UNL     1      95.456  96.053 113.551  1.00  0.00    -0.026 C 
ENDBRANCH   5  10
ENDBRANCH   3   4
ENDBRANCH   2   3
BRANCH   2  24
ATOM     24  C   UNL     1     106.181  95.276 113.944  1.00  0.00     0.063 A 
ATOM     25  C   UNL     1     106.978  94.157 114.182  1.00  0.00    -0.037 A 
ATOM     26  C   UNL     1     105.490  95.876 114.997  1.00  0.00     0.016 A 
ATOM     27  C   UNL     1     107.087  93.638 115.471  1.00  0.00     0.004 A 
ATOM     28  C   UNL     1     105.598  95.358 116.288  1.00  0.00     0.001 A 
ATOM     29  C   UNL     1     106.397  94.239 116.525  1.00  0.00     0.000 A 
ATOM     30  C   UNL     1     107.728  93.494 113.072  1.00  0.00     0.045 C 
ENDBRANCH   2  24
TORSDOF 4
ENDMDL
MODEL 13
REMARK VINA RESULT:      -6.5     13.074     15.351
REMARK SMILES Cc1ccccc1C(=O)Oc1ccc(N2C(=O)[C@H]3[C@@H]4C=C[C@@H]([C@@H]5C[C@H]45)[C@@H]3C2=O)cc1
REMARK SMILES IDX 9 1 8 2 10 3 11 4 14 5 13 6 29 7 12 8 30 9 15 10 17 11 16 12
REMARK SMILES IDX 18 13 27 14 19 15 26 16 28 17 25 18 20 19 22 20 23 21 24 22
REMARK SMILES IDX 21 23 7 24 2 25 6 26 3 27 5 28 4 29 1 30
REMARK H PARENT
ROOT
ATOM      1  O   UNL     1     105.969  97.802 113.192  1.00  0.00    -0.246 OA
ATOM      2  C   UNL     1     105.544  96.775 113.700  1.00  0.00     0.343 C 
ENDROOT
BRANCH   2   3
ATOM      3  O   UNL     1     104.381  96.667 114.464  1.00  0.00    -0.423 OA
BRANCH   3   4
ATOM      4  C   UNL     1     103.260  96.392 113.744  1.00  0.00     0.131 A 
ATOM      5  C   UNL     1     100.960  95.830 112.266  1.00  0.00     0.052 A 
ATOM      6  C   UNL     1     101.790  96.889 111.892  1.00  0.00     0.031 A 
ATOM      7  C   UNL     1     101.281  95.054 113.379  1.00  0.00     0.031 A 
ATOM      8  C   UNL     1     102.939  97.169 112.630  1.00  0.00     0.049 A 
ATOM      9  C   UNL     1     102.430  95.335 114.118  1.00  0.00     0.049 A 
BRANCH   5  10
ATOM     10  N   UNL     1      99.815  95.551 111.531  1.00  0.00    -0.250 N 
ATOM     11  O   UNL     1     100.658  94.070 109.844  1.00  0.00    -0.274 OA
ATOM     12  C   UNL     1      99.794  94.768 110.341  1.00  0.00     0.238 C 
ATOM     13  C   UNL     1      98.458  95.117 109.760  1.00  0.00     0.100 C 
ATOM     14  C   UNL     1      98.509  96.011 111.870  1.00  0.00     0.238 C 
ATOM     15  C   UNL     1      97.627  94.558 108.592  1.00  0.00     0.028 C 
ATOM     16  C   UNL     1      97.634  95.107 111.053  1.00  0.00     0.100 C 
ATOM     17  O   UNL     1      98.157  96.844 112.684  1.00  0.00    -0.274 OA
ATOM     18  C   UNL     1      96.723  93.371 108.931  1.00  0.00     0.001 C 
ATOM     19  C   UNL     1      96.653  95.744 108.372  1.00  0.00    -0.026 C 
ATOM     20  C   UNL     1      96.150  95.137 110.668  1.00  0.00     0.028 C 
ATOM     21  C   UNL     1      95.837  93.697 110.139  1.00  0.00     0.001 C 
ATOM     22  C   UNL     1      96.775  92.496 110.145  1.00  0.00     0.009 C 
ATOM     23  C   UNL     1      95.939  96.075 109.471  1.00  0.00    -0.026 C 
ENDBRANCH   5  10
ENDBRANCH   3   4
ENDBRANCH   2   3
BRANCH   2  24
ATOM     24  C   UNL     1     106.219  95.458 113.560  1.00  0.00     0.063 A 
ATOM     25  C   UNL     1     106.576  94.961 112.307  1.00  0.00    -0.037 A 
ATOM     26  C   UNL     1     106.493  94.717 114.709  1.00  0.00     0.016 A 
ATOM     27  C   UNL     1     107.208  93.722 112.202  1.00  0.00     0.004 A 
ATOM     28  C   UNL     1     107.125  93.478 114.604  1.00  0.00     0.001 A 
ATOM     29  C   UNL     1     107.484  92.980 113.351  1.00  0.00     0.000 A 
ATOM     30  C   UNL     1     106.294  95.735 111.060  1.00  0.00     0.045 C 
ENDBRANCH   2  24
TORSDOF 4
ENDMDL
MODEL 14
REMARK VINA RESULT:      -6.5     13.159     15.600
REMARK SMILES Cc1ccccc1C(=O)Oc1ccc(N2C(=O)[C@H]3[C@@H]4C=C[C@@H]([C@@H]5C[C@H]45)[C@@H]3C2=O)cc1
REMARK SMILES IDX 9 1 8 2 10 3 11 4 14 5 13 6 29 7 12 8 30 9 15 10 17 11 16 12
REMARK SMILES IDX 18 13 27 14 19 15 26 16 28 17 25 18 20 19 22 20 23 21 24 22
REMARK SMILES IDX 21 23 7 24 2 25 6 26 3 27 5 28 4 29 1 30
REMARK H PARENT
ROOT
ATOM      1  O   UNL     1     105.448  96.785 116.065  1.00  0.00    -0.246 OA
ATOM      2  C   UNL     1     105.208  95.675 115.614  1.00  0.00     0.343 C 
ENDROOT
BRANCH   2   3
ATOM      3  O   UNL     1     104.132  94.864 115.979  1.00  0.00    -0.423 OA
BRANCH   3   4
ATOM      4  C   UNL     1     103.082  94.902 115.114  1.00  0.00     0.131 A 
ATOM      5  C   UNL     1     100.928  94.979 113.341  1.00  0.00     0.052 A 
ATOM      6  C   UNL     1     101.185  96.068 114.176  1.00  0.00     0.031 A 
ATOM      7  C   UNL     1     101.749  93.852 113.394  1.00  0.00     0.031 A 
ATOM      8  C   UNL     1     102.262  96.029 115.062  1.00  0.00     0.049 A 
ATOM      9  C   UNL     1     102.825  93.814 114.280  1.00  0.00     0.049 A 
BRANCH   5  10
ATOM     10  N   UNL     1      99.855  95.018 112.460  1.00  0.00    -0.250 N 
ATOM     11  O   UNL     1      98.205  93.731 113.631  1.00  0.00    -0.274 OA
ATOM     12  C   UNL     1      98.630  94.317 112.653  1.00  0.00     0.238 C 
ATOM     13  C   UNL     1      98.023  94.366 111.284  1.00  0.00     0.100 C 
ATOM     14  C   UNL     1      99.838  95.766 111.246  1.00  0.00     0.238 C 
ATOM     15  C   UNL     1      96.641  93.994 110.720  1.00  0.00     0.028 C 
ATOM     16  C   UNL     1      98.373  95.815 110.926  1.00  0.00     0.100 C 
ATOM     17  O   UNL     1     100.744  96.322 110.654  1.00  0.00    -0.274 OA
ATOM     18  C   UNL     1      95.579  95.094 110.793  1.00  0.00     0.001 C 
ATOM     19  C   UNL     1      96.992  93.888 109.213  1.00  0.00    -0.026 C 
ATOM     20  C   UNL     1      97.576  96.199 109.674  1.00  0.00     0.028 C 
ATOM     21  C   UNL     1      96.104  96.392 110.172  1.00  0.00     0.001 C 
ATOM     22  C   UNL     1      95.611  96.347 111.613  1.00  0.00     0.009 C 
ATOM     23  C   UNL     1      97.534  95.015 108.698  1.00  0.00    -0.026 C 
ENDBRANCH   5  10
ENDBRANCH   3   4
ENDBRANCH   2   3
BRANCH   2  24
ATOM     24  C   UNL     1     106.045  95.021 114.575  1.00  0.00     0.063 A 
ATOM     25  C   UNL     1     106.073  95.500 113.265  1.00  0.00    -0.037 A 
ATOM     26  C   UNL     1     106.810  93.910 114.928  1.00  0.00     0.016 A 
ATOM     27  C   UNL     1     106.867  94.868 112.308  1.00  0.00     0.004 A 
ATOM     28  C   UNL     1     107.604  93.277 113.971  1.00  0.00     0.001 A 
ATOM     29  C   UNL     1     107.634  93.757 112.662  1.00  0.00     0.000 A 
ATOM     30  C   UNL     1     105.263  96.688 112.860  1.00  0.00     0.045 C 
ENDBRANCH   2  24
TORSDOF 4
ENDMDL
MODEL 15
REMARK VINA RESULT:      -6.4     12.542     14.837
REMARK SMILES Cc1ccccc1C(=O)Oc1ccc(N2C(=O)[C@H]3[C@@H]4C=C[C@@H]([C@@H]5C[C@H]45)[C@@H]3C2=O)cc1
REMARK SMILES IDX 9 1 8 2 10 3 11 4 14 5 13 6 29 7 12 8 30 9 15 10 17 11 16 12
REMARK SMILES IDX 18 13 27 14 19 15 26 16 28 17 25 18 20 19 22 20 23 21 24 22
REMARK SMILES IDX 21 23 7 24 2 25 6 26 3 27 5 28 4 29 1 30
REMARK H PARENT
ROOT
ATOM      1  O   UNL     1     106.735  96.680 112.251  1.00  0.00    -0.246 OA
ATOM      2  C   UNL     1     106.101  95.722 112.668  1.00  0.00     0.343 C 
ENDROOT
BRANCH   2   3
ATOM      3  O   UNL     1     105.222  94.940 111.917  1.00  0.00    -0.423 OA
BRANCH   3   4
ATOM      4  C   UNL     1     103.906  95.186 112.160  1.00  0.00     0.131 A 
ATOM      5  C   UNL     1     101.207  95.690 112.658  1.00  0.00     0.052 A 
ATOM      6  C   UNL     1     102.078  96.748 112.393  1.00  0.00     0.031 A 
ATOM      7  C   UNL     1     101.686  94.380 112.673  1.00  0.00     0.031 A 
ATOM      8  C   UNL     1     103.427  96.495 112.144  1.00  0.00     0.049 A 
ATOM      9  C   UNL     1     103.035  94.129 112.424  1.00  0.00     0.049 A 
BRANCH   5  10
ATOM     10  N   UNL     1      99.863  95.941 112.907  1.00  0.00    -0.250 N 
ATOM     11  O   UNL     1      99.849  96.248 115.286  1.00  0.00    -0.274 OA
ATOM     12  C   UNL     1      99.304  96.109 114.207  1.00  0.00     0.238 C 
ATOM     13  C   UNL     1      97.839  95.944 113.940  1.00  0.00     0.100 C 
ATOM     14  C   UNL     1      98.867  96.066 111.895  1.00  0.00     0.238 C 
ATOM     15  C   UNL     1      96.573  96.160 114.787  1.00  0.00     0.028 C 
ATOM     16  C   UNL     1      97.749  96.741 112.634  1.00  0.00     0.100 C 
ATOM     17  O   UNL     1      98.916  95.801 110.708  1.00  0.00    -0.274 OA
ATOM     18  C   UNL     1      96.006  97.582 114.779  1.00  0.00     0.001 C 
ATOM     19  C   UNL     1      95.559  95.328 113.960  1.00  0.00    -0.026 C 
ATOM     20  C   UNL     1      96.267  96.976 112.323  1.00  0.00     0.028 C 
ATOM     21  C   UNL     1      95.806  98.073 113.341  1.00  0.00     0.001 C 
ATOM     22  C   UNL     1      96.685  98.837 114.324  1.00  0.00     0.009 C 
ATOM     23  C   UNL     1      95.455  95.720 112.670  1.00  0.00    -0.026 C 
ENDBRANCH   5  10
ENDBRANCH   3   4
ENDBRANCH   2   3
BRANCH   2  24
ATOM     24  C   UNL     1     106.191  95.234 114.069  1.00  0.00     0.063 A 
ATOM     25  C   UNL     1     106.989  94.140 114.402  1.00  0.00    -0.037 A 
ATOM     26  C   UNL     1     105.459  95.891 115.058  1.00  0.00     0.016 A 
ATOM     27  C   UNL     1     107.056  93.702 115.724  1.00  0.00     0.004 A 
ATOM     28  C   UNL     1     105.525  95.453 116.381  1.00  0.00     0.001 A 
ATOM     29  C   UNL     1     106.324  94.359 116.715  1.00  0.00     0.000 A 
ATOM     30  C   UNL     1     107.783  93.419 113.362  1.00  0.00     0.045 C 
ENDBRANCH   2  24
TORSDOF 4
ENDMDL
