MODEL 1
REMARK VINA RESULT:     -11.2      0.000      0.000
REMARK SMILES Cc1ccc(NC(=O)NC(=O)[C@H](C)N2CCC(C(=O)c3ccc(C)cc3C)CC2)cc1
REMARK SMILES IDX 14 1 17 2 16 3 28 4 15 5 29 6 18 7 19 8 20 9 26 10 21 11
REMARK SMILES IDX 25 12 22 13 23 14 27 15 24 16 12 17 13 18 10 19 11 20 9 21
REMARK SMILES IDX 7 22 8 23 6 24 5 27 4 28 30 29 3 30 31 31 2 32 1 33
REMARK H PARENT 9 25 6 26
ROOT
ATOM      1  N   UNL     1     111.553 114.953  79.881  1.00  0.00    -0.292 NA
ATOM      2  C   UNL     1     114.303 114.813  78.899  1.00  0.00     0.064 C 
ATOM      3  C   UNL     1     113.918 114.367  80.308  1.00  0.00     0.027 C 
ATOM      4  C   UNL     1     113.302 115.842  78.374  1.00  0.00     0.027 C 
ATOM      5  C   UNL     1     112.461 113.903  80.363  1.00  0.00     0.086 C 
ATOM      6  C   UNL     1     111.866 115.329  78.496  1.00  0.00     0.086 C 
ENDROOT
BRANCH   2   7
ATOM      7  C   UNL     1     115.677 115.407  78.902  1.00  0.00     0.166 C 
ATOM      8  O   UNL     1     115.964 116.338  78.153  1.00  0.00    -0.294 OA
BRANCH   7   9
ATOM      9  C   UNL     1     116.704 114.854  79.831  1.00  0.00     0.021 A 
ATOM     10  C   UNL     1     117.453 113.727  79.491  1.00  0.00    -0.040 A 
ATOM     11  C   UNL     1     116.912 115.487  81.056  1.00  0.00     0.012 A 
ATOM     12  C   UNL     1     118.409 113.232  80.377  1.00  0.00     0.007 A 
ATOM     13  C   UNL     1     117.868 114.992  81.943  1.00  0.00     0.004 A 
ATOM     14  C   UNL     1     118.617 113.866  81.603  1.00  0.00    -0.051 A 
ATOM     15  C   UNL     1     117.250 113.032  78.184  1.00  0.00     0.045 C 
ATOM     16  C   UNL     1     119.638 113.335  82.552  1.00  0.00     0.044 C 
ENDBRANCH   7   9
ENDBRANCH   2   7
BRANCH   1  17
ATOM     17  C   UNL     1     110.161 114.515  79.990  1.00  0.00     0.144 C 
ATOM     18  C   UNL     1     109.243 115.488  79.261  1.00  0.00     0.035 C 
BRANCH  17  19
ATOM     19  C   UNL     1     110.048 113.124  79.378  1.00  0.00     0.245 C 
ATOM     20  O   UNL     1     110.438 112.106  79.944  1.00  0.00    -0.273 OA
ATOM     21  N   UNL     1     109.472 113.161  78.105  1.00  0.00    -0.276 N 
ATOM     22  C   UNL     1     109.249 112.044  77.276  1.00  0.00     0.325 C 
ATOM     23  O   UNL     1     109.545 110.896  77.595  1.00  0.00    -0.248 OA
ATOM     24  N   UNL     1     108.656 112.450  76.075  1.00  0.00    -0.308 N 
ATOM     25  H   UNL     1     109.185 114.062  77.734  1.00  0.00     0.174 HD
ATOM     26  H   UNL     1     108.473 113.444  75.967  1.00  0.00     0.171 HD
BRANCH  24  27
ATOM     27  C   UNL     1     108.271 111.640  74.981  1.00  0.00     0.042 A 
ATOM     28  C   UNL     1     108.928 111.764  73.756  1.00  0.00     0.026 A 
ATOM     29  C   UNL     1     107.237 110.716  75.127  1.00  0.00     0.026 A 
ATOM     30  C   UNL     1     108.549 110.965  72.678  1.00  0.00     0.005 A 
ATOM     31  C   UNL     1     106.858 109.917  74.049  1.00  0.00     0.005 A 
ATOM     32  C   UNL     1     107.515 110.041  72.825  1.00  0.00    -0.051 A 
ATOM     33  C   UNL     1     107.110 109.186  71.671  1.00  0.00     0.044 C 
ENDBRANCH  24  27
ENDBRANCH  17  19
ENDBRANCH   1  17
TORSDOF 5
ENDMDL
MODEL 2
REMARK VINA RESULT:     -10.9      1.175      1.563
REMARK SMILES Cc1ccc(NC(=O)NC(=O)[C@H](C)N2CCC(C(=O)c3ccc(C)cc3C)CC2)cc1
REMARK SMILES IDX 14 1 17 2 16 3 28 4 15 5 29 6 18 7 19 8 20 9 26 10 21 11
REMARK SMILES IDX 25 12 22 13 23 14 27 15 24 16 12 17 13 18 10 19 11 20 9 21
REMARK SMILES IDX 7 22 8 23 6 24 5 27 4 28 30 29 3 30 31 31 2 32 1 33
REMARK H PARENT 9 25 6 26
ROOT
ATOM      1  N   UNL     1     111.521 113.849  79.333  1.00  0.00    -0.292 NA
ATOM      2  C   UNL     1     114.228 114.907  79.642  1.00  0.00     0.064 C 
ATOM      3  C   UNL     1     113.229 115.502  78.651  1.00  0.00     0.027 C 
ATOM      4  C   UNL     1     113.887 113.445  79.928  1.00  0.00     0.027 C 
ATOM      5  C   UNL     1     111.788 115.277  79.114  1.00  0.00     0.086 C 
ATOM      6  C   UNL     1     112.425 113.289  80.346  1.00  0.00     0.086 C 
ENDROOT
BRANCH   2   7
ATOM      7  C   UNL     1     115.618 115.001  79.095  1.00  0.00     0.166 C 
ATOM      8  O   UNL     1     115.820 115.410  77.953  1.00  0.00    -0.294 OA
BRANCH   7   9
ATOM      9  C   UNL     1     116.765 114.591  79.954  1.00  0.00     0.021 A 
ATOM     10  C   UNL     1     117.589 113.524  79.597  1.00  0.00    -0.040 A 
ATOM     11  C   UNL     1     117.010 115.299  81.131  1.00  0.00     0.012 A 
ATOM     12  C   UNL     1     118.657 113.163  80.418  1.00  0.00     0.007 A 
ATOM     13  C   UNL     1     118.078 114.938  81.952  1.00  0.00     0.004 A 
ATOM     14  C   UNL     1     118.902 113.871  81.595  1.00  0.00    -0.051 A 
ATOM     15  C   UNL     1     117.348 112.750  78.342  1.00  0.00     0.045 C 
ATOM     16  C   UNL     1     120.043 113.483  82.474  1.00  0.00     0.044 C 
ENDBRANCH   7   9
ENDBRANCH   2   7
BRANCH   1  17
ATOM     17  C   UNL     1     110.125 113.644  79.723  1.00  0.00     0.144 C 
ATOM     18  C   UNL     1     109.329 114.928  79.530  1.00  0.00     0.035 C 
BRANCH  17  19
ATOM     19  C   UNL     1     109.546 112.530  78.859  1.00  0.00     0.245 C 
ATOM     20  O   UNL     1     109.144 111.462  79.317  1.00  0.00    -0.273 OA
ATOM     21  N   UNL     1     109.550 112.867  77.503  1.00  0.00    -0.276 N 
ATOM     22  C   UNL     1     109.098 112.044  76.453  1.00  0.00     0.325 C 
ATOM     23  O   UNL     1     108.643 110.917  76.628  1.00  0.00    -0.248 OA
ATOM     24  N   UNL     1     109.250 112.702  75.228  1.00  0.00    -0.308 N 
ATOM     25  H   UNL     1     109.907 113.781  77.236  1.00  0.00     0.174 HD
ATOM     26  H   UNL     1     109.645 113.638  75.256  1.00  0.00     0.171 HD
BRANCH  24  27
ATOM     27  C   UNL     1     108.917 112.223  73.939  1.00  0.00     0.042 A 
ATOM     28  C   UNL     1     107.786 112.713  73.284  1.00  0.00     0.026 A 
ATOM     29  C   UNL     1     109.719 111.263  73.323  1.00  0.00     0.026 A 
ATOM     30  C   UNL     1     107.459 112.241  72.013  1.00  0.00     0.005 A 
ATOM     31  C   UNL     1     109.391 110.791  72.052  1.00  0.00     0.005 A 
ATOM     32  C   UNL     1     108.261 111.281  71.397  1.00  0.00    -0.051 A 
ATOM     33  C   UNL     1     107.910 110.777  70.038  1.00  0.00     0.044 C 
ENDBRANCH  24  27
ENDBRANCH  17  19
ENDBRANCH   1  17
TORSDOF 5
ENDMDL
MODEL 3
REMARK VINA RESULT:     -10.9      2.271      9.179
REMARK SMILES Cc1ccc(NC(=O)NC(=O)[C@H](C)N2CCC(C(=O)c3ccc(C)cc3C)CC2)cc1
REMARK SMILES IDX 14 1 17 2 16 3 28 4 15 5 29 6 18 7 19 8 20 9 26 10 21 11
REMARK SMILES IDX 25 12 22 13 23 14 27 15 24 16 12 17 13 18 10 19 11 20 9 21
REMARK SMILES IDX 7 22 8 23 6 24 5 27 4 28 30 29 3 30 31 31 2 32 1 33
REMARK H PARENT 9 25 6 26
ROOT
ATOM      1  N   UNL     1     110.378 114.572  77.565  1.00  0.00    -0.292 NA
ATOM      2  C   UNL     1     108.759 112.811  75.886  1.00  0.00     0.064 C 
ATOM      3  C   UNL     1     109.158 112.436  77.312  1.00  0.00     0.027 C 
ATOM      4  C   UNL     1     109.761 113.802  75.297  1.00  0.00     0.027 C 
ATOM      5  C   UNL     1     109.378 113.683  78.171  1.00  0.00     0.086 C 
ATOM      6  C   UNL     1     109.963 115.003  76.224  1.00  0.00     0.086 C 
ENDROOT
BRANCH   2   7
ATOM      7  C   UNL     1     108.702 111.586  75.026  1.00  0.00     0.166 C 
ATOM      8  O   UNL     1     107.625 111.140  74.635  1.00  0.00    -0.294 OA
BRANCH   7   9
ATOM      9  C   UNL     1     109.973 110.907  74.645  1.00  0.00     0.021 A 
ATOM     10  C   UNL     1     110.386 110.843  73.315  1.00  0.00    -0.040 A 
ATOM     11  C   UNL     1     110.755 110.333  75.647  1.00  0.00     0.012 A 
ATOM     12  C   UNL     1     111.581 110.204  72.985  1.00  0.00     0.007 A 
ATOM     13  C   UNL     1     111.950 109.693  75.318  1.00  0.00     0.004 A 
ATOM     14  C   UNL     1     112.364 109.630  73.988  1.00  0.00    -0.051 A 
ATOM     15  C   UNL     1     109.567 111.450  72.222  1.00  0.00     0.045 C 
ATOM     16  C   UNL     1     113.640 108.943  73.636  1.00  0.00     0.044 C 
ENDBRANCH   7   9
ENDBRANCH   2   7
BRANCH   1  17
ATOM     17  C   UNL     1     110.618 115.733  78.424  1.00  0.00     0.144 C 
ATOM     18  C   UNL     1     110.310 115.388  79.875  1.00  0.00     0.035 C 
BRANCH  17  19
ATOM     19  C   UNL     1     112.078 116.142  78.277  1.00  0.00     0.245 C 
ATOM     20  O   UNL     1     112.452 117.051  77.539  1.00  0.00    -0.273 OA
ATOM     21  N   UNL     1     112.922 115.351  79.061  1.00  0.00    -0.276 N 
ATOM     22  C   UNL     1     114.325 115.470  79.130  1.00  0.00     0.325 C 
ATOM     23  O   UNL     1     114.964 116.301  78.491  1.00  0.00    -0.248 OA
ATOM     24  N   UNL     1     114.843 114.517  80.014  1.00  0.00    -0.308 N 
ATOM     25  H   UNL     1     112.503 114.626  79.636  1.00  0.00     0.174 HD
ATOM     26  H   UNL     1     114.174 113.899  80.466  1.00  0.00     0.171 HD
BRANCH  24  27
ATOM     27  C   UNL     1     116.197 114.305  80.363  1.00  0.00     0.042 A 
ATOM     28  C   UNL     1     116.809 115.125  81.312  1.00  0.00     0.026 A 
ATOM     29  C   UNL     1     116.920 113.277  79.760  1.00  0.00     0.026 A 
ATOM     30  C   UNL     1     118.144 114.914  81.657  1.00  0.00     0.005 A 
ATOM     31  C   UNL     1     118.256 113.067  80.104  1.00  0.00     0.005 A 
ATOM     32  C   UNL     1     118.867 113.886  81.054  1.00  0.00    -0.051 A 
ATOM     33  C   UNL     1     120.295 113.662  81.423  1.00  0.00     0.044 C 
ENDBRANCH  24  27
ENDBRANCH  17  19
ENDBRANCH   1  17
TORSDOF 5
ENDMDL
MODEL 4
REMARK VINA RESULT:     -10.8      2.742     10.680
REMARK SMILES Cc1ccc(NC(=O)NC(=O)[C@H](C)N2CCC(C(=O)c3ccc(C)cc3C)CC2)cc1
REMARK SMILES IDX 14 1 17 2 16 3 28 4 15 5 29 6 18 7 19 8 20 9 26 10 21 11
REMARK SMILES IDX 25 12 22 13 23 14 27 15 24 16 12 17 13 18 10 19 11 20 9 21
REMARK SMILES IDX 7 22 8 23 6 24 5 27 4 28 30 29 3 30 31 31 2 32 1 33
REMARK H PARENT 9 25 6 26
ROOT
ATOM      1  N   UNL     1     110.242 113.796  77.430  1.00  0.00    -0.292 NA
ATOM      2  C   UNL     1     107.554 113.402  76.350  1.00  0.00     0.064 C 
ATOM      3  C   UNL     1     107.947 112.933  77.750  1.00  0.00     0.027 C 
ATOM      4  C   UNL     1     108.788 113.487  75.453  1.00  0.00     0.027 C 
ATOM      5  C   UNL     1     109.076 113.790  78.325  1.00  0.00     0.086 C 
ATOM      6  C   UNL     1     109.891 114.324  76.104  1.00  0.00     0.086 C 
ENDROOT
BRANCH   2   7
ATOM      7  C   UNL     1     106.561 112.457  75.748  1.00  0.00     0.166 C 
ATOM      8  O   UNL     1     106.608 112.168  74.554  1.00  0.00    -0.294 OA
BRANCH   7   9
ATOM      9  C   UNL     1     105.505 111.864  76.618  1.00  0.00     0.021 A 
ATOM     10  C   UNL     1     105.443 110.489  76.841  1.00  0.00    -0.040 A 
ATOM     11  C   UNL     1     104.571 112.711  77.214  1.00  0.00     0.012 A 
ATOM     12  C   UNL     1     104.447 109.960  77.661  1.00  0.00     0.007 A 
ATOM     13  C   UNL     1     103.574 112.182  78.034  1.00  0.00     0.004 A 
ATOM     14  C   UNL     1     103.513 110.807  78.259  1.00  0.00    -0.051 A 
ATOM     15  C   UNL     1     106.432 109.560  76.215  1.00  0.00     0.045 C 
ATOM     16  C   UNL     1     102.446 110.241  79.133  1.00  0.00     0.044 C 
ENDBRANCH   7   9
ENDBRANCH   2   7
BRANCH   1  17
ATOM     17  C   UNL     1     111.333 114.575  78.017  1.00  0.00     0.144 C 
ATOM     18  C   UNL     1     110.785 115.571  79.031  1.00  0.00     0.035 C 
BRANCH  17  19
ATOM     19  C   UNL     1     112.298 113.610  78.694  1.00  0.00     0.245 C 
ATOM     20  O   UNL     1     112.037 112.426  78.896  1.00  0.00    -0.273 OA
ATOM     21  N   UNL     1     113.490 114.240  79.065  1.00  0.00    -0.276 N 
ATOM     22  C   UNL     1     114.571 113.622  79.724  1.00  0.00     0.325 C 
ATOM     23  O   UNL     1     114.577 112.438  80.047  1.00  0.00    -0.248 OA
ATOM     24  N   UNL     1     115.596 114.551  79.937  1.00  0.00    -0.308 N 
ATOM     25  H   UNL     1     113.600 115.226  78.847  1.00  0.00     0.174 HD
ATOM     26  H   UNL     1     115.433 115.498  79.605  1.00  0.00     0.171 HD
BRANCH  24  27
ATOM     27  C   UNL     1     116.845 114.334  80.563  1.00  0.00     0.042 A 
ATOM     28  C   UNL     1     117.242 115.142  81.629  1.00  0.00     0.026 A 
ATOM     29  C   UNL     1     117.681 113.311  80.115  1.00  0.00     0.026 A 
ATOM     30  C   UNL     1     118.473 114.927  82.246  1.00  0.00     0.005 A 
ATOM     31  C   UNL     1     118.914 113.097  80.732  1.00  0.00     0.005 A 
ATOM     32  C   UNL     1     119.309 113.905  81.798  1.00  0.00    -0.051 A 
ATOM     33  C   UNL     1     120.627 113.676  82.459  1.00  0.00     0.044 C 
ENDBRANCH  24  27
ENDBRANCH  17  19
ENDBRANCH   1  17
TORSDOF 5
ENDMDL
MODEL 5
REMARK VINA RESULT:     -10.6      1.691      9.773
REMARK SMILES Cc1ccc(NC(=O)NC(=O)[C@H](C)N2CCC(C(=O)c3ccc(C)cc3C)CC2)cc1
REMARK SMILES IDX 14 1 17 2 16 3 28 4 15 5 29 6 18 7 19 8 20 9 26 10 21 11
REMARK SMILES IDX 25 12 22 13 23 14 27 15 24 16 12 17 13 18 10 19 11 20 9 21
REMARK SMILES IDX 7 22 8 23 6 24 5 27 4 28 30 29 3 30 31 31 2 32 1 33
REMARK H PARENT 9 25 6 26
ROOT
ATOM      1  N   UNL     1     110.227 114.432  77.815  1.00  0.00    -0.292 NA
ATOM      2  C   UNL     1     108.466 112.398  76.672  1.00  0.00     0.064 C 
ATOM      3  C   UNL     1     109.433 112.090  77.814  1.00  0.00     0.027 C 
ATOM      4  C   UNL     1     108.964 113.593  75.861  1.00  0.00     0.027 C 
ATOM      5  C   UNL     1     109.717 113.337  78.653  1.00  0.00     0.086 C 
ATOM      6  C   UNL     1     109.265 114.790  76.765  1.00  0.00     0.086 C 
ENDROOT
BRANCH   2   7
ATOM      7  C   UNL     1     108.326 111.207  75.777  1.00  0.00     0.166 C 
ATOM      8  O   UNL     1     107.924 110.131  76.215  1.00  0.00    -0.294 OA
BRANCH   7   9
ATOM      9  C   UNL     1     108.680 111.338  74.334  1.00  0.00     0.021 A 
ATOM     10  C   UNL     1     109.982 111.113  73.888  1.00  0.00    -0.040 A 
ATOM     11  C   UNL     1     107.681 111.689  73.426  1.00  0.00     0.012 A 
ATOM     12  C   UNL     1     110.286 111.240  72.533  1.00  0.00     0.007 A 
ATOM     13  C   UNL     1     107.985 111.816  72.071  1.00  0.00     0.004 A 
ATOM     14  C   UNL     1     109.287 111.591  71.624  1.00  0.00    -0.051 A 
ATOM     15  C   UNL     1     111.070 110.735  74.840  1.00  0.00     0.045 C 
ATOM     16  C   UNL     1     109.612 111.729  70.175  1.00  0.00     0.044 C 
ENDBRANCH   7   9
ENDBRANCH   2   7
BRANCH   1  17
ATOM     17  C   UNL     1     110.544 115.600  78.639  1.00  0.00     0.144 C 
ATOM     18  C   UNL     1     110.334 115.279  80.113  1.00  0.00     0.035 C 
BRANCH  17  19
ATOM     19  C   UNL     1     111.996 115.983  78.384  1.00  0.00     0.245 C 
ATOM     20  O   UNL     1     112.336 116.824  77.554  1.00  0.00    -0.273 OA
ATOM     21  N   UNL     1     112.877 115.253  79.188  1.00  0.00    -0.276 N 
ATOM     22  C   UNL     1     114.281 115.365  79.176  1.00  0.00     0.325 C 
ATOM     23  O   UNL     1     114.890 116.135  78.437  1.00  0.00    -0.248 OA
ATOM     24  N   UNL     1     114.840 114.486  80.109  1.00  0.00    -0.308 N 
ATOM     25  H   UNL     1     112.485 114.582  79.842  1.00  0.00     0.174 HD
ATOM     26  H   UNL     1     114.193 113.914  80.645  1.00  0.00     0.171 HD
BRANCH  24  27
ATOM     27  C   UNL     1     116.210 114.293  80.406  1.00  0.00     0.042 A 
ATOM     28  C   UNL     1     116.849 115.127  81.324  1.00  0.00     0.026 A 
ATOM     29  C   UNL     1     116.920 113.268  79.782  1.00  0.00     0.026 A 
ATOM     30  C   UNL     1     118.199 114.935  81.617  1.00  0.00     0.005 A 
ATOM     31  C   UNL     1     118.271 113.077  80.075  1.00  0.00     0.005 A 
ATOM     32  C   UNL     1     118.909 113.910  80.993  1.00  0.00    -0.051 A 
ATOM     33  C   UNL     1     120.353 113.706  81.306  1.00  0.00     0.044 C 
ENDBRANCH  24  27
ENDBRANCH  17  19
ENDBRANCH   1  17
TORSDOF 5
ENDMDL
MODEL 6
REMARK VINA RESULT:     -10.5      1.632      2.493
REMARK SMILES Cc1ccc(NC(=O)NC(=O)[C@H](C)N2CCC(C(=O)c3ccc(C)cc3C)CC2)cc1
REMARK SMILES IDX 14 1 17 2 16 3 28 4 15 5 29 6 18 7 19 8 20 9 26 10 21 11
REMARK SMILES IDX 25 12 22 13 23 14 27 15 24 16 12 17 13 18 10 19 11 20 9 21
REMARK SMILES IDX 7 22 8 23 6 24 5 27 4 28 30 29 3 30 31 31 2 32 1 33
REMARK H PARENT 9 25 6 26
ROOT
ATOM      1  N   UNL     1     112.420 113.853  79.130  1.00  0.00    -0.292 NA
ATOM      2  C   UNL     1     115.246 114.254  79.761  1.00  0.00     0.064 C 
ATOM      3  C   UNL     1     114.472 115.203  78.848  1.00  0.00     0.027 C 
ATOM      4  C   UNL     1     114.601 112.869  79.757  1.00  0.00     0.027 C 
ATOM      5  C   UNL     1     112.981 115.209  79.190  1.00  0.00     0.086 C 
ATOM      6  C   UNL     1     113.105 112.953  80.067  1.00  0.00     0.086 C 
ENDROOT
BRANCH   2   7
ATOM      7  C   UNL     1     116.669 114.146  79.310  1.00  0.00     0.166 C 
ATOM      8  O   UNL     1     116.966 114.277  78.124  1.00  0.00    -0.294 OA
BRANCH   7   9
ATOM      9  C   UNL     1     117.732 113.878  80.320  1.00  0.00     0.021 A 
ATOM     10  C   UNL     1     117.782 114.585  81.520  1.00  0.00    -0.040 A 
ATOM     11  C   UNL     1     118.686 112.897  80.047  1.00  0.00     0.012 A 
ATOM     12  C   UNL     1     118.786 114.313  82.449  1.00  0.00     0.007 A 
ATOM     13  C   UNL     1     119.691 112.625  80.976  1.00  0.00     0.004 A 
ATOM     14  C   UNL     1     119.740 113.331  82.177  1.00  0.00    -0.051 A 
ATOM     15  C   UNL     1     116.772 115.640  81.837  1.00  0.00     0.045 C 
ATOM     16  C   UNL     1     120.816 113.042  83.168  1.00  0.00     0.044 C 
ENDBRANCH   7   9
ENDBRANCH   2   7
BRANCH   1  17
ATOM     17  C   UNL     1     110.983 113.881  79.406  1.00  0.00     0.144 C 
ATOM     18  C   UNL     1     110.682 114.857  80.536  1.00  0.00     0.035 C 
BRANCH  17  19
ATOM     19  C   UNL     1     110.260 114.307  78.135  1.00  0.00     0.245 C 
ATOM     20  O   UNL     1     109.765 115.421  77.982  1.00  0.00    -0.273 OA
ATOM     21  N   UNL     1     110.219 113.277  77.190  1.00  0.00    -0.276 N 
ATOM     22  C   UNL     1     109.607 113.353  75.923  1.00  0.00     0.325 C 
ATOM     23  O   UNL     1     109.034 114.357  75.509  1.00  0.00    -0.248 OA
ATOM     24  N   UNL     1     109.758 112.139  75.244  1.00  0.00    -0.308 N 
ATOM     25  H   UNL     1     110.663 112.394  77.423  1.00  0.00     0.174 HD
ATOM     26  H   UNL     1     110.263 111.402  75.730  1.00  0.00     0.171 HD
BRANCH  24  27
ATOM     27  C   UNL     1     109.292 111.805  73.951  1.00  0.00     0.042 A 
ATOM     28  C   UNL     1     108.105 111.087  73.801  1.00  0.00     0.026 A 
ATOM     29  C   UNL     1     110.019 112.193  72.827  1.00  0.00     0.026 A 
ATOM     30  C   UNL     1     107.645 110.759  72.526  1.00  0.00     0.005 A 
ATOM     31  C   UNL     1     109.560 111.864  71.551  1.00  0.00     0.005 A 
ATOM     32  C   UNL     1     108.372 111.148  71.401  1.00  0.00    -0.051 A 
ATOM     33  C   UNL     1     107.881 110.796  70.038  1.00  0.00     0.044 C 
ENDBRANCH  24  27
ENDBRANCH  17  19
ENDBRANCH   1  17
TORSDOF 5
ENDMDL
MODEL 7
REMARK VINA RESULT:     -10.2      2.865     10.564
REMARK SMILES Cc1ccc(NC(=O)NC(=O)[C@H](C)N2CCC(C(=O)c3ccc(C)cc3C)CC2)cc1
REMARK SMILES IDX 14 1 17 2 16 3 28 4 15 5 29 6 18 7 19 8 20 9 26 10 21 11
REMARK SMILES IDX 25 12 22 13 23 14 27 15 24 16 12 17 13 18 10 19 11 20 9 21
REMARK SMILES IDX 7 22 8 23 6 24 5 27 4 28 30 29 3 30 31 31 2 32 1 33
REMARK H PARENT 9 25 6 26
ROOT
ATOM      1  N   UNL     1     110.234 113.703  77.533  1.00  0.00    -0.292 NA
ATOM      2  C   UNL     1     107.935 112.951  75.892  1.00  0.00     0.064 C 
ATOM      3  C   UNL     1     107.807 113.882  77.097  1.00  0.00     0.027 C 
ATOM      4  C   UNL     1     109.155 112.045  76.047  1.00  0.00     0.027 C 
ATOM      5  C   UNL     1     109.113 114.635  77.356  1.00  0.00     0.086 C 
ATOM      6  C   UNL     1     110.416 112.860  76.344  1.00  0.00     0.086 C 
ENDROOT
BRANCH   2   7
ATOM      7  C   UNL     1     106.702 112.113  75.752  1.00  0.00     0.166 C 
ATOM      8  O   UNL     1     106.549 111.372  74.783  1.00  0.00    -0.294 OA
BRANCH   7   9
ATOM      9  C   UNL     1     105.653 112.185  76.809  1.00  0.00     0.021 A 
ATOM     10  C   UNL     1     105.877 111.668  78.084  1.00  0.00    -0.040 A 
ATOM     11  C   UNL     1     104.432 112.784  76.503  1.00  0.00     0.012 A 
ATOM     12  C   UNL     1     104.879 111.750  79.055  1.00  0.00     0.007 A 
ATOM     13  C   UNL     1     103.433 112.867  77.474  1.00  0.00     0.004 A 
ATOM     14  C   UNL     1     103.657 112.351  78.750  1.00  0.00    -0.051 A 
ATOM     15  C   UNL     1     107.177 111.021  78.437  1.00  0.00     0.045 C 
ATOM     16  C   UNL     1     102.589 112.436  79.787  1.00  0.00     0.044 C 
ENDBRANCH   7   9
ENDBRANCH   2   7
BRANCH   1  17
ATOM     17  C   UNL     1     111.465 114.435  77.834  1.00  0.00     0.144 C 
ATOM     18  C   UNL     1     111.146 115.712  78.600  1.00  0.00     0.035 C 
BRANCH  17  19
ATOM     19  C   UNL     1     112.367 113.532  78.665  1.00  0.00     0.245 C 
ATOM     20  O   UNL     1     112.030 112.415  79.053  1.00  0.00    -0.273 OA
ATOM     21  N   UNL     1     113.598 114.135  78.939  1.00  0.00    -0.276 N 
ATOM     22  C   UNL     1     114.638 113.563  79.699  1.00  0.00     0.325 C 
ATOM     23  O   UNL     1     114.568 112.449  80.210  1.00  0.00    -0.248 OA
ATOM     24  N   UNL     1     115.721 114.446  79.768  1.00  0.00    -0.308 N 
ATOM     25  H   UNL     1     113.771 115.064  78.566  1.00  0.00     0.174 HD
ATOM     26  H   UNL     1     115.620 115.336  79.286  1.00  0.00     0.171 HD
BRANCH  24  27
ATOM     27  C   UNL     1     116.956 114.253  80.431  1.00  0.00     0.042 A 
ATOM     28  C   UNL     1     117.822 113.243  80.012  1.00  0.00     0.026 A 
ATOM     29  C   UNL     1     117.308 115.074  81.502  1.00  0.00     0.026 A 
ATOM     30  C   UNL     1     119.040 113.054  80.665  1.00  0.00     0.005 A 
ATOM     31  C   UNL     1     118.526 114.884  82.156  1.00  0.00     0.005 A 
ATOM     32  C   UNL     1     119.392 113.874  81.737  1.00  0.00    -0.051 A 
ATOM     33  C   UNL     1     120.694 113.671  82.435  1.00  0.00     0.044 C 
ENDBRANCH  24  27
ENDBRANCH  17  19
ENDBRANCH   1  17
TORSDOF 5
ENDMDL
MODEL 8
REMARK VINA RESULT:     -10.0      1.934     10.465
REMARK SMILES Cc1ccc(NC(=O)NC(=O)[C@H](C)N2CCC(C(=O)c3ccc(C)cc3C)CC2)cc1
REMARK SMILES IDX 14 1 17 2 16 3 28 4 15 5 29 6 18 7 19 8 20 9 26 10 21 11
REMARK SMILES IDX 25 12 22 13 23 14 27 15 24 16 12 17 13 18 10 19 11 20 9 21
REMARK SMILES IDX 7 22 8 23 6 24 5 27 4 28 30 29 3 30 31 31 2 32 1 33
REMARK H PARENT 9 25 6 26
ROOT
ATOM      1  N   UNL     1     110.226 113.812  77.704  1.00  0.00    -0.292 NA
ATOM      2  C   UNL     1     107.480 113.477  76.758  1.00  0.00     0.064 C 
ATOM      3  C   UNL     1     107.932 112.995  78.136  1.00  0.00     0.027 C 
ATOM      4  C   UNL     1     108.670 113.540  75.801  1.00  0.00     0.027 C 
ATOM      5  C   UNL     1     109.107 113.826  78.656  1.00  0.00     0.086 C 
ATOM      6  C   UNL     1     109.820 114.351  76.400  1.00  0.00     0.086 C 
ENDROOT
BRANCH   2   7
ATOM      7  C   UNL     1     106.439 112.556  76.204  1.00  0.00     0.166 C 
ATOM      8  O   UNL     1     105.326 112.478  76.721  1.00  0.00    -0.294 OA
BRANCH   7   9
ATOM      9  C   UNL     1     106.765 111.727  75.009  1.00  0.00     0.021 A 
ATOM     10  C   UNL     1     106.667 110.337  75.046  1.00  0.00    -0.040 A 
ATOM     11  C   UNL     1     107.171 112.367  73.838  1.00  0.00     0.012 A 
ATOM     12  C   UNL     1     106.976 109.585  73.913  1.00  0.00     0.007 A 
ATOM     13  C   UNL     1     107.480 111.615  72.704  1.00  0.00     0.004 A 
ATOM     14  C   UNL     1     107.381 110.225  72.741  1.00  0.00    -0.051 A 
ATOM     15  C   UNL     1     106.234 109.627  76.288  1.00  0.00     0.045 C 
ATOM     16  C   UNL     1     107.715 109.421  71.530  1.00  0.00     0.044 C 
ENDBRANCH   7   9
ENDBRANCH   2   7
BRANCH   1  17
ATOM     17  C   UNL     1     111.361 114.565  78.239  1.00  0.00     0.144 C 
ATOM     18  C   UNL     1     110.893 115.524  79.326  1.00  0.00     0.035 C 
BRANCH  17  19
ATOM     19  C   UNL     1     112.367 113.573  78.808  1.00  0.00     0.245 C 
ATOM     20  O   UNL     1     112.138 112.371  78.921  1.00  0.00    -0.273 OA
ATOM     21  N   UNL     1     113.556 114.200  79.194  1.00  0.00    -0.276 N 
ATOM     22  C   UNL     1     114.670 113.558  79.770  1.00  0.00     0.325 C 
ATOM     23  O   UNL     1     114.711 112.352  79.997  1.00  0.00    -0.248 OA
ATOM     24  N   UNL     1     115.680 114.492  80.028  1.00  0.00    -0.308 N 
ATOM     25  H   UNL     1     113.637 115.203  79.053  1.00  0.00     0.174 HD
ATOM     26  H   UNL     1     115.486 115.458  79.778  1.00  0.00     0.171 HD
BRANCH  24  27
ATOM     27  C   UNL     1     116.952 114.256  80.599  1.00  0.00     0.042 A 
ATOM     28  C   UNL     1     117.373 115.005  81.699  1.00  0.00     0.026 A 
ATOM     29  C   UNL     1     117.786 113.276  80.062  1.00  0.00     0.026 A 
ATOM     30  C   UNL     1     118.628 114.771  82.261  1.00  0.00     0.005 A 
ATOM     31  C   UNL     1     119.041 113.043  80.625  1.00  0.00     0.005 A 
ATOM     32  C   UNL     1     119.462 113.790  81.725  1.00  0.00    -0.051 A 
ATOM     33  C   UNL     1     120.803 113.542  82.326  1.00  0.00     0.044 C 
ENDBRANCH  24  27
ENDBRANCH  17  19
ENDBRANCH   1  17
TORSDOF 5
ENDMDL
MODEL 9
REMARK VINA RESULT:      -9.8      4.917     11.668
REMARK SMILES Cc1ccc(NC(=O)NC(=O)[C@H](C)N2CCC(C(=O)c3ccc(C)cc3C)CC2)cc1
REMARK SMILES IDX 14 1 17 2 16 3 28 4 15 5 29 6 18 7 19 8 20 9 26 10 21 11
REMARK SMILES IDX 25 12 22 13 23 14 27 15 24 16 12 17 13 18 10 19 11 20 9 21
REMARK SMILES IDX 7 22 8 23 6 24 5 27 4 28 30 29 3 30 31 31 2 32 1 33
REMARK H PARENT 9 25 6 26
ROOT
ATOM      1  N   UNL     1     117.435 113.948  80.657  1.00  0.00    -0.292 NA
ATOM      2  C   UNL     1     115.139 113.849  78.851  1.00  0.00     0.064 C 
ATOM      3  C   UNL     1     115.067 114.515  80.224  1.00  0.00     0.027 C 
ATOM      4  C   UNL     1     116.236 112.786  78.832  1.00  0.00     0.027 C 
ATOM      5  C   UNL     1     116.439 115.029  80.663  1.00  0.00     0.086 C 
ATOM      6  C   UNL     1     117.569 113.357  79.319  1.00  0.00     0.086 C 
ENDROOT
BRANCH   2   7
ATOM      7  C   UNL     1     113.824 113.219  78.512  1.00  0.00     0.166 C 
ATOM      8  O   UNL     1     113.768 112.223  77.794  1.00  0.00    -0.294 OA
BRANCH   7   9
ATOM      9  C   UNL     1     112.571 113.815  79.059  1.00  0.00     0.021 A 
ATOM     10  C   UNL     1     111.901 113.228  80.131  1.00  0.00    -0.040 A 
ATOM     11  C   UNL     1     112.074 114.983  78.480  1.00  0.00     0.012 A 
ATOM     12  C   UNL     1     110.733 113.808  80.625  1.00  0.00     0.007 A 
ATOM     13  C   UNL     1     110.906 115.563  78.973  1.00  0.00     0.004 A 
ATOM     14  C   UNL     1     110.235 114.976  80.046  1.00  0.00    -0.051 A 
ATOM     15  C   UNL     1     112.413 111.978  80.769  1.00  0.00     0.045 C 
ATOM     16  C   UNL     1     108.984 115.595  80.572  1.00  0.00     0.044 C 
ENDBRANCH   7   9
ENDBRANCH   2   7
BRANCH   1  17
ATOM     17  C   UNL     1     118.729 114.442  81.131  1.00  0.00     0.144 C 
ATOM     18  C   UNL     1     118.539 115.702  81.965  1.00  0.00     0.035 C 
BRANCH  17  19
ATOM     19  C   UNL     1     119.380 113.348  81.967  1.00  0.00     0.245 C 
ATOM     20  O   UNL     1     119.994 112.401  81.479  1.00  0.00    -0.273 OA
ATOM     21  N   UNL     1     119.176 113.547  83.336  1.00  0.00    -0.276 N 
ATOM     22  C   UNL     1     119.638 112.702  84.364  1.00  0.00     0.325 C 
ATOM     23  O   UNL     1     120.283 111.678  84.157  1.00  0.00    -0.248 OA
ATOM     24  N   UNL     1     119.252 113.208  85.610  1.00  0.00    -0.308 N 
ATOM     25  H   UNL     1     118.653 114.367  83.628  1.00  0.00     0.174 HD
ATOM     26  H   UNL     1     118.718 114.074  85.608  1.00  0.00     0.171 HD
BRANCH  24  27
ATOM     27  C   UNL     1     119.516 112.661  86.887  1.00  0.00     0.042 A 
ATOM     28  C   UNL     1     118.472 112.468  87.793  1.00  0.00     0.026 A 
ATOM     29  C   UNL     1     120.819 112.314  87.241  1.00  0.00     0.026 A 
ATOM     30  C   UNL     1     118.733 111.927  89.051  1.00  0.00     0.005 A 
ATOM     31  C   UNL     1     121.080 111.774  88.500  1.00  0.00     0.005 A 
ATOM     32  C   UNL     1     120.036 111.580  89.405  1.00  0.00    -0.051 A 
ATOM     33  C   UNL     1     120.314 111.003  90.752  1.00  0.00     0.044 C 
ENDBRANCH  24  27
ENDBRANCH  17  19
ENDBRANCH   1  17
TORSDOF 5
ENDMDL
MODEL 10
REMARK VINA RESULT:      -9.8      3.002      4.140
REMARK SMILES Cc1ccc(NC(=O)NC(=O)[C@H](C)N2CCC(C(=O)c3ccc(C)cc3C)CC2)cc1
REMARK SMILES IDX 14 1 17 2 16 3 28 4 15 5 29 6 18 7 19 8 20 9 26 10 21 11
REMARK SMILES IDX 25 12 22 13 23 14 27 15 24 16 12 17 13 18 10 19 11 20 9 21
REMARK SMILES IDX 7 22 8 23 6 24 5 27 4 28 30 29 3 30 31 31 2 32 1 33
REMARK H PARENT 9 25 6 26
ROOT
ATOM      1  N   UNL     1     112.883 112.827  78.303  1.00  0.00    -0.292 NA
ATOM      2  C   UNL     1     115.318 113.580  79.734  1.00  0.00     0.064 C 
ATOM      3  C   UNL     1     113.958 114.192  80.063  1.00  0.00     0.027 C 
ATOM      4  C   UNL     1     115.343 113.085  78.288  1.00  0.00     0.027 C 
ATOM      5  C   UNL     1     112.819 113.231  79.714  1.00  0.00     0.086 C 
ATOM      6  C   UNL     1     114.157 112.163  77.998  1.00  0.00     0.086 C 
ENDROOT
BRANCH   2   7
ATOM      7  C   UNL     1     116.403 114.591  79.936  1.00  0.00     0.166 C 
ATOM      8  O   UNL     1     116.311 115.720  79.458  1.00  0.00    -0.294 OA
BRANCH   7   9
ATOM      9  C   UNL     1     117.607 114.215  80.731  1.00  0.00     0.021 A 
ATOM     10  C   UNL     1     117.878 114.817  81.959  1.00  0.00    -0.040 A 
ATOM     11  C   UNL     1     118.467 113.240  80.227  1.00  0.00     0.012 A 
ATOM     12  C   UNL     1     119.009 114.444  82.684  1.00  0.00     0.007 A 
ATOM     13  C   UNL     1     119.600 112.867  80.951  1.00  0.00     0.004 A 
ATOM     14  C   UNL     1     119.870 113.468  82.180  1.00  0.00    -0.051 A 
ATOM     15  C   UNL     1     116.972 115.863  82.522  1.00  0.00     0.045 C 
ATOM     16  C   UNL     1     121.082 113.072  82.953  1.00  0.00     0.044 C 
ENDBRANCH   7   9
ENDBRANCH   2   7
BRANCH   1  17
ATOM     17  C   UNL     1     111.758 111.952  77.970  1.00  0.00     0.144 C 
ATOM     18  C   UNL     1     111.436 111.037  79.145  1.00  0.00     0.035 C 
BRANCH  17  19
ATOM     19  C   UNL     1     110.555 112.826  77.637  1.00  0.00     0.245 C 
ATOM     20  O   UNL     1     110.648 113.911  77.066  1.00  0.00    -0.273 OA
ATOM     21  N   UNL     1     109.358 112.253  78.074  1.00  0.00    -0.276 N 
ATOM     22  C   UNL     1     108.077 112.823  77.931  1.00  0.00     0.325 C 
ATOM     23  O   UNL     1     107.878 113.910  77.394  1.00  0.00    -0.248 OA
ATOM     24  N   UNL     1     107.111 111.976  78.483  1.00  0.00    -0.308 N 
ATOM     25  H   UNL     1     109.399 111.349  78.536  1.00  0.00     0.174 HD
ATOM     26  H   UNL     1     107.443 111.106  78.892  1.00  0.00     0.171 HD
BRANCH  24  27
ATOM     27  C   UNL     1     105.712 112.178  78.543  1.00  0.00     0.042 A 
ATOM     28  C   UNL     1     105.054 112.142  79.772  1.00  0.00     0.026 A 
ATOM     29  C   UNL     1     104.992 112.414  77.372  1.00  0.00     0.026 A 
ATOM     30  C   UNL     1     103.675 112.343  79.830  1.00  0.00     0.005 A 
ATOM     31  C   UNL     1     103.612 112.615  77.431  1.00  0.00     0.005 A 
ATOM     32  C   UNL     1     102.954 112.580  78.660  1.00  0.00    -0.051 A 
ATOM     33  C   UNL     1     101.480 112.794  78.723  1.00  0.00     0.044 C 
ENDBRANCH  24  27
ENDBRANCH  17  19
ENDBRANCH   1  17
TORSDOF 5
ENDMDL
MODEL 11
REMARK VINA RESULT:      -9.5      2.032      9.985
REMARK SMILES Cc1ccc(NC(=O)NC(=O)[C@H](C)N2CCC(C(=O)c3ccc(C)cc3C)CC2)cc1
REMARK SMILES IDX 14 1 17 2 16 3 28 4 15 5 29 6 18 7 19 8 20 9 26 10 21 11
REMARK SMILES IDX 25 12 22 13 23 14 27 15 24 16 12 17 13 18 10 19 11 20 9 21
REMARK SMILES IDX 7 22 8 23 6 24 5 27 4 28 30 29 3 30 31 31 2 32 1 33
REMARK H PARENT 9 25 6 26
ROOT
ATOM      1  N   UNL     1     110.318 114.941  77.542  1.00  0.00    -0.292 NA
ATOM      2  C   UNL     1     108.895 114.113  75.127  1.00  0.00     0.064 C 
ATOM      3  C   UNL     1     109.851 113.181  75.869  1.00  0.00     0.027 C 
ATOM      4  C   UNL     1     109.258 115.573  75.398  1.00  0.00     0.027 C 
ATOM      5  C   UNL     1     109.929 113.537  77.355  1.00  0.00     0.086 C 
ATOM      6  C   UNL     1     109.357 115.848  76.900  1.00  0.00     0.086 C 
ENDROOT
BRANCH   2   7
ATOM      7  C   UNL     1     108.954 113.848  73.654  1.00  0.00     0.166 C 
ATOM      8  O   UNL     1     109.361 114.706  72.874  1.00  0.00    -0.294 OA
BRANCH   7   9
ATOM      9  C   UNL     1     108.511 112.521  73.138  1.00  0.00     0.021 A 
ATOM     10  C   UNL     1     108.949 112.045  71.903  1.00  0.00    -0.040 A 
ATOM     11  C   UNL     1     107.646 111.753  73.916  1.00  0.00     0.012 A 
ATOM     12  C   UNL     1     108.522 110.799  71.445  1.00  0.00     0.007 A 
ATOM     13  C   UNL     1     107.218 110.506  73.458  1.00  0.00     0.004 A 
ATOM     14  C   UNL     1     107.657 110.029  72.223  1.00  0.00    -0.051 A 
ATOM     15  C   UNL     1     109.877 112.849  71.051  1.00  0.00     0.045 C 
ATOM     16  C   UNL     1     107.197 108.698  71.732  1.00  0.00     0.044 C 
ENDBRANCH   7   9
ENDBRANCH   2   7
BRANCH   1  17
ATOM     17  C   UNL     1     110.440 115.252  78.967  1.00  0.00     0.144 C 
ATOM     18  C   UNL     1     109.080 115.163  79.646  1.00  0.00     0.035 C 
BRANCH  17  19
ATOM     19  C   UNL     1     111.408 114.256  79.592  1.00  0.00     0.245 C 
ATOM     20  O   UNL     1     111.060 113.160  80.026  1.00  0.00    -0.273 OA
ATOM     21  N   UNL     1     112.716 114.749  79.623  1.00  0.00    -0.276 N 
ATOM     22  C   UNL     1     113.833 114.074  80.153  1.00  0.00     0.325 C 
ATOM     23  O   UNL     1     113.770 112.955  80.655  1.00  0.00    -0.248 OA
ATOM     24  N   UNL     1     114.980 114.864  80.016  1.00  0.00    -0.308 N 
ATOM     25  H   UNL     1     112.891 115.671  79.234  1.00  0.00     0.174 HD
ATOM     26  H   UNL     1     114.861 115.772  79.575  1.00  0.00     0.171 HD
BRANCH  24  27
ATOM     27  C   UNL     1     116.300 114.552  80.418  1.00  0.00     0.042 A 
ATOM     28  C   UNL     1     116.890 115.248  81.473  1.00  0.00     0.026 A 
ATOM     29  C   UNL     1     117.010 113.549  79.760  1.00  0.00     0.026 A 
ATOM     30  C   UNL     1     118.191 114.940  81.870  1.00  0.00     0.005 A 
ATOM     31  C   UNL     1     118.312 113.242  80.156  1.00  0.00     0.005 A 
ATOM     32  C   UNL     1     118.902 113.937  81.211  1.00  0.00    -0.051 A 
ATOM     33  C   UNL     1     120.294 113.608  81.635  1.00  0.00     0.044 C 
ENDBRANCH  24  27
ENDBRANCH  17  19
ENDBRANCH   1  17
TORSDOF 5
ENDMDL
MODEL 12
REMARK VINA RESULT:      -9.4      1.835      9.958
REMARK SMILES Cc1ccc(NC(=O)NC(=O)[C@H](C)N2CCC(C(=O)c3ccc(C)cc3C)CC2)cc1
REMARK SMILES IDX 14 1 17 2 16 3 28 4 15 5 29 6 18 7 19 8 20 9 26 10 21 11
REMARK SMILES IDX 25 12 22 13 23 14 27 15 24 16 12 17 13 18 10 19 11 20 9 21
REMARK SMILES IDX 7 22 8 23 6 24 5 27 4 28 30 29 3 30 31 31 2 32 1 33
REMARK H PARENT 9 25 6 26
ROOT
ATOM      1  N   UNL     1     109.764 114.063  77.809  1.00  0.00    -0.292 NA
ATOM      2  C   UNL     1     107.599 113.223  76.034  1.00  0.00     0.064 C 
ATOM      3  C   UNL     1     107.867 112.537  77.372  1.00  0.00     0.027 C 
ATOM      4  C   UNL     1     108.874 113.881  75.508  1.00  0.00     0.027 C 
ATOM      5  C   UNL     1     108.527 113.497  78.364  1.00  0.00     0.086 C 
ATOM      6  C   UNL     1     109.501 114.795  76.563  1.00  0.00     0.086 C 
ENDROOT
BRANCH   2   7
ATOM      7  C   UNL     1     107.099 112.228  75.033  1.00  0.00     0.166 C 
ATOM      8  O   UNL     1     106.090 111.562  75.255  1.00  0.00    -0.294 OA
BRANCH   7   9
ATOM      9  C   UNL     1     107.843 112.049  73.753  1.00  0.00     0.021 A 
ATOM     10  C   UNL     1     108.981 111.246  73.686  1.00  0.00    -0.040 A 
ATOM     11  C   UNL     1     107.380 112.700  72.611  1.00  0.00     0.012 A 
ATOM     12  C   UNL     1     109.657 111.094  72.476  1.00  0.00     0.007 A 
ATOM     13  C   UNL     1     108.056 112.549  71.400  1.00  0.00     0.004 A 
ATOM     14  C   UNL     1     109.194 111.745  71.332  1.00  0.00    -0.051 A 
ATOM     15  C   UNL     1     109.498 110.537  74.896  1.00  0.00     0.045 C 
ATOM     16  C   UNL     1     109.918 111.585  70.038  1.00  0.00     0.044 C 
ENDBRANCH   7   9
ENDBRANCH   2   7
BRANCH   1  17
ATOM     17  C   UNL     1     110.411 114.936  78.788  1.00  0.00     0.144 C 
ATOM     18  C   UNL     1     109.368 115.584  79.689  1.00  0.00     0.035 C 
BRANCH  17  19
ATOM     19  C   UNL     1     111.374 114.095  79.616  1.00  0.00     0.245 C 
ATOM     20  O   UNL     1     111.017 113.135  80.297  1.00  0.00    -0.273 OA
ATOM     21  N   UNL     1     112.689 114.559  79.518  1.00  0.00    -0.276 N 
ATOM     22  C   UNL     1     113.804 114.006  80.178  1.00  0.00     0.325 C 
ATOM     23  O   UNL     1     113.732 113.034  80.925  1.00  0.00    -0.248 OA
ATOM     24  N   UNL     1     114.960 114.722  79.849  1.00  0.00    -0.308 N 
ATOM     25  H   UNL     1     112.871 115.363  78.924  1.00  0.00     0.174 HD
ATOM     26  H   UNL     1     114.847 115.506  79.210  1.00  0.00     0.171 HD
BRANCH  24  27
ATOM     27  C   UNL     1     116.281 114.490  80.297  1.00  0.00     0.042 A 
ATOM     28  C   UNL     1     117.041 113.469  79.727  1.00  0.00     0.026 A 
ATOM     29  C   UNL     1     116.824 115.282  81.308  1.00  0.00     0.026 A 
ATOM     30  C   UNL     1     118.345 113.241  80.168  1.00  0.00     0.005 A 
ATOM     31  C   UNL     1     118.127 115.053  81.750  1.00  0.00     0.005 A 
ATOM     32  C   UNL     1     118.887 114.033  81.179  1.00  0.00    -0.051 A 
ATOM     33  C   UNL     1     120.281 113.788  81.651  1.00  0.00     0.044 C 
ENDBRANCH  24  27
ENDBRANCH  17  19
ENDBRANCH   1  17
TORSDOF 5
ENDMDL
MODEL 13
REMARK VINA RESULT:      -9.4      2.572      3.631
REMARK SMILES Cc1ccc(NC(=O)NC(=O)[C@H](C)N2CCC(C(=O)c3ccc(C)cc3C)CC2)cc1
REMARK SMILES IDX 14 1 17 2 16 3 28 4 15 5 29 6 18 7 19 8 20 9 26 10 21 11
REMARK SMILES IDX 25 12 22 13 23 14 27 15 24 16 12 17 13 18 10 19 11 20 9 21
REMARK SMILES IDX 7 22 8 23 6 24 5 27 4 28 30 29 3 30 31 31 2 32 1 33
REMARK H PARENT 9 25 6 26
ROOT
ATOM      1  N   UNL     1     112.889 114.169  78.808  1.00  0.00    -0.292 NA
ATOM      2  C   UNL     1     115.695 114.348  79.608  1.00  0.00     0.064 C 
ATOM      3  C   UNL     1     115.106 115.220  78.500  1.00  0.00     0.027 C 
ATOM      4  C   UNL     1     114.886 113.061  79.757  1.00  0.00     0.027 C 
ATOM      5  C   UNL     1     113.608 115.447  78.711  1.00  0.00     0.086 C 
ATOM      6  C   UNL     1     113.395 113.359  79.924  1.00  0.00     0.086 C 
ENDROOT
BRANCH   2   7
ATOM      7  C   UNL     1     117.121 114.012  79.298  1.00  0.00     0.166 C 
ATOM      8  O   UNL     1     117.514 113.939  78.136  1.00  0.00    -0.294 OA
BRANCH   7   9
ATOM      9  C   UNL     1     118.068 113.766  80.423  1.00  0.00     0.021 A 
ATOM     10  C   UNL     1     118.006 114.517  81.597  1.00  0.00    -0.040 A 
ATOM     11  C   UNL     1     119.027 112.763  80.286  1.00  0.00     0.012 A 
ATOM     12  C   UNL     1     118.902 114.264  82.634  1.00  0.00     0.007 A 
ATOM     13  C   UNL     1     119.925 112.510  81.324  1.00  0.00     0.004 A 
ATOM     14  C   UNL     1     119.862 113.260  82.498  1.00  0.00    -0.051 A 
ATOM     15  C   UNL     1     116.988 115.597  81.768  1.00  0.00     0.045 C 
ATOM     16  C   UNL     1     120.823 112.992  83.606  1.00  0.00     0.044 C 
ENDBRANCH   7   9
ENDBRANCH   2   7
BRANCH   1  17
ATOM     17  C   UNL     1     111.452 114.401  78.955  1.00  0.00     0.144 C 
ATOM     18  C   UNL     1     111.024 115.606  78.127  1.00  0.00     0.035 C 
BRANCH  17  19
ATOM     19  C   UNL     1     110.716 113.152  78.488  1.00  0.00     0.245 C 
ATOM     20  O   UNL     1     111.276 112.204  77.941  1.00  0.00    -0.273 OA
ATOM     21  N   UNL     1     109.343 113.231  78.741  1.00  0.00    -0.276 N 
ATOM     22  C   UNL     1     108.392 112.244  78.411  1.00  0.00     0.325 C 
ATOM     23  O   UNL     1     108.680 111.188  77.854  1.00  0.00    -0.248 OA
ATOM     24  N   UNL     1     107.116 112.657  78.810  1.00  0.00    -0.308 N 
ATOM     25  H   UNL     1     108.987 114.064  79.200  1.00  0.00     0.174 HD
ATOM     26  H   UNL     1     107.049 113.565  79.262  1.00  0.00     0.171 HD
BRANCH  24  27
ATOM     27  C   UNL     1     105.895 111.959  78.664  1.00  0.00     0.042 A 
ATOM     28  C   UNL     1     105.685 111.145  77.551  1.00  0.00     0.026 A 
ATOM     29  C   UNL     1     104.900 112.084  79.634  1.00  0.00     0.026 A 
ATOM     30  C   UNL     1     104.481 110.456  77.408  1.00  0.00     0.005 A 
ATOM     31  C   UNL     1     103.696 111.395  79.491  1.00  0.00     0.005 A 
ATOM     32  C   UNL     1     103.487 110.581  78.378  1.00  0.00    -0.051 A 
ATOM     33  C   UNL     1     102.199 109.845  78.224  1.00  0.00     0.044 C 
ENDBRANCH  24  27
ENDBRANCH  17  19
ENDBRANCH   1  17
TORSDOF 5
ENDMDL
MODEL 14
REMARK VINA RESULT:      -9.3      2.195      9.683
REMARK SMILES Cc1ccc(NC(=O)NC(=O)[C@H](C)N2CCC(C(=O)c3ccc(C)cc3C)CC2)cc1
REMARK SMILES IDX 14 1 17 2 16 3 28 4 15 5 29 6 18 7 19 8 20 9 26 10 21 11
REMARK SMILES IDX 25 12 22 13 23 14 27 15 24 16 12 17 13 18 10 19 11 20 9 21
REMARK SMILES IDX 7 22 8 23 6 24 5 27 4 28 30 29 3 30 31 31 2 32 1 33
REMARK H PARENT 9 25 6 26
ROOT
ATOM      1  N   UNL     1     108.383 112.578  77.265  1.00  0.00    -0.292 NA
ATOM      2  C   UNL     1     107.534 110.813  75.095  1.00  0.00     0.064 C 
ATOM      3  C   UNL     1     108.990 110.903  75.549  1.00  0.00     0.027 C 
ATOM      4  C   UNL     1     106.791 112.105  75.433  1.00  0.00     0.027 C 
ATOM      5  C   UNL     1     109.087 111.311  77.021  1.00  0.00     0.086 C 
ATOM      6  C   UNL     1     106.962 112.473  76.907  1.00  0.00     0.086 C 
ENDROOT
BRANCH   2   7
ATOM      7  C   UNL     1     107.467 110.567  73.620  1.00  0.00     0.166 C 
ATOM      8  O   UNL     1     106.842 109.609  73.168  1.00  0.00    -0.294 OA
BRANCH   7   9
ATOM      9  C   UNL     1     108.169 111.502  72.696  1.00  0.00     0.021 A 
ATOM     10  C   UNL     1     109.456 111.228  72.233  1.00  0.00    -0.040 A 
ATOM     11  C   UNL     1     107.515 112.666  72.293  1.00  0.00     0.012 A 
ATOM     12  C   UNL     1     110.089 112.119  71.367  1.00  0.00     0.007 A 
ATOM     13  C   UNL     1     108.148 113.557  71.426  1.00  0.00     0.004 A 
ATOM     14  C   UNL     1     109.435 113.283  70.962  1.00  0.00    -0.051 A 
ATOM     15  C   UNL     1     110.178 109.988  72.649  1.00  0.00     0.045 C 
ATOM     16  C   UNL     1     110.113 114.237  70.039  1.00  0.00     0.044 C 
ENDBRANCH   7   9
ENDBRANCH   2   7
BRANCH   1  17
ATOM     17  C   UNL     1     108.530 112.982  78.664  1.00  0.00     0.144 C 
ATOM     18  C   UNL     1     109.038 111.815  79.501  1.00  0.00     0.035 C 
BRANCH  17  19
ATOM     19  C   UNL     1     109.515 114.143  78.725  1.00  0.00     0.245 C 
ATOM     20  O   UNL     1     109.175 115.320  78.627  1.00  0.00    -0.273 OA
ATOM     21  N   UNL     1     110.831 113.701  78.883  1.00  0.00    -0.276 N 
ATOM     22  C   UNL     1     111.969 114.529  78.956  1.00  0.00     0.325 C 
ATOM     23  O   UNL     1     111.918 115.754  78.885  1.00  0.00    -0.248 OA
ATOM     24  N   UNL     1     113.120 113.749  79.115  1.00  0.00    -0.308 N 
ATOM     25  H   UNL     1     110.997 112.701  78.954  1.00  0.00     0.174 HD
ATOM     26  H   UNL     1     112.989 112.742  79.156  1.00  0.00     0.171 HD
BRANCH  24  27
ATOM     27  C   UNL     1     114.458 114.192  79.230  1.00  0.00     0.042 A 
ATOM     28  C   UNL     1     114.953 114.603  80.468  1.00  0.00     0.026 A 
ATOM     29  C   UNL     1     115.283 114.216  78.106  1.00  0.00     0.026 A 
ATOM     30  C   UNL     1     116.273 115.038  80.581  1.00  0.00     0.005 A 
ATOM     31  C   UNL     1     116.604 114.652  78.219  1.00  0.00     0.005 A 
ATOM     32  C   UNL     1     117.098 115.062  79.457  1.00  0.00    -0.051 A 
ATOM     33  C   UNL     1     118.510 115.529  79.578  1.00  0.00     0.044 C 
ENDBRANCH  24  27
ENDBRANCH  17  19
ENDBRANCH   1  17
TORSDOF 5
ENDMDL
MODEL 15
REMARK VINA RESULT:      -9.3      2.704     10.440
REMARK SMILES Cc1ccc(NC(=O)NC(=O)[C@H](C)N2CCC(C(=O)c3ccc(C)cc3C)CC2)cc1
REMARK SMILES IDX 14 1 17 2 16 3 28 4 15 5 29 6 18 7 19 8 20 9 26 10 21 11
REMARK SMILES IDX 25 12 22 13 23 14 27 15 24 16 12 17 13 18 10 19 11 20 9 21
REMARK SMILES IDX 7 22 8 23 6 24 5 27 4 28 30 29 3 30 31 31 2 32 1 33
REMARK H PARENT 9 25 6 26
ROOT
ATOM      1  N   UNL     1     109.744 114.339  79.231  1.00  0.00    -0.292 NA
ATOM      2  C   UNL     1     108.685 112.152  77.605  1.00  0.00     0.064 C 
ATOM      3  C   UNL     1     108.293 113.609  77.366  1.00  0.00     0.027 C 
ATOM      4  C   UNL     1     109.123 111.951  79.055  1.00  0.00     0.027 C 
ATOM      5  C   UNL     1     109.400 114.563  77.820  1.00  0.00     0.086 C 
ATOM      6  C   UNL     1     110.201 112.961  79.454  1.00  0.00     0.086 C 
ENDROOT
BRANCH   2   7
ATOM      7  C   UNL     1     107.531 111.249  77.300  1.00  0.00     0.166 C 
ATOM      8  O   UNL     1     107.702 110.182  76.714  1.00  0.00    -0.294 OA
BRANCH   7   9
ATOM      9  C   UNL     1     106.159 111.658  77.718  1.00  0.00     0.021 A 
ATOM     10  C   UNL     1     105.275 112.246  76.814  1.00  0.00    -0.040 A 
ATOM     11  C   UNL     1     105.766 111.441  79.038  1.00  0.00     0.012 A 
ATOM     12  C   UNL     1     103.997 112.617  77.230  1.00  0.00     0.007 A 
ATOM     13  C   UNL     1     104.487 111.812  79.455  1.00  0.00     0.004 A 
ATOM     14  C   UNL     1     103.603 112.399  78.551  1.00  0.00    -0.051 A 
ATOM     15  C   UNL     1     105.672 112.490  75.394  1.00  0.00     0.045 C 
ATOM     16  C   UNL     1     102.237 112.799  78.997  1.00  0.00     0.044 C 
ENDBRANCH   7   9
ENDBRANCH   2   7
BRANCH   1  17
ATOM     17  C   UNL     1     110.765 115.293  79.666  1.00  0.00     0.144 C 
ATOM     18  C   UNL     1     110.920 115.246  81.180  1.00  0.00     0.035 C 
BRANCH  17  19
ATOM     19  C   UNL     1     112.080 114.927  78.989  1.00  0.00     0.245 C 
ATOM     20  O   UNL     1     112.174 114.682  77.788  1.00  0.00    -0.273 OA
ATOM     21  N   UNL     1     113.141 114.889  79.898  1.00  0.00    -0.276 N 
ATOM     22  C   UNL     1     114.476 114.566  79.585  1.00  0.00     0.325 C 
ATOM     23  O   UNL     1     114.852 114.277  78.452  1.00  0.00    -0.248 OA
ATOM     24  N   UNL     1     115.266 114.627  80.737  1.00  0.00    -0.308 N 
ATOM     25  H   UNL     1     112.948 115.111  80.871  1.00  0.00     0.174 HD
ATOM     26  H   UNL     1     114.797 114.884  81.602  1.00  0.00     0.171 HD
BRANCH  24  27
ATOM     27  C   UNL     1     116.654 114.375  80.851  1.00  0.00     0.042 A 
ATOM     28  C   UNL     1     117.217 113.269  80.213  1.00  0.00     0.026 A 
ATOM     29  C   UNL     1     117.459 115.233  81.600  1.00  0.00     0.026 A 
ATOM     30  C   UNL     1     118.585 113.022  80.325  1.00  0.00     0.005 A 
ATOM     31  C   UNL     1     118.827 114.985  81.712  1.00  0.00     0.005 A 
ATOM     32  C   UNL     1     119.390 113.880  81.074  1.00  0.00    -0.051 A 
ATOM     33  C   UNL     1     120.852 113.615  81.193  1.00  0.00     0.044 C 
ENDBRANCH  24  27
ENDBRANCH  17  19
ENDBRANCH   1  17
TORSDOF 5
ENDMDL
