MODEL 1
REMARK VINA RESULT:      -8.0      0.000      0.000
REMARK SMILES Cc1ccc2c(c1)C(F)(F)c1cc(C#CCS)ccc1-2
REMARK SMILES IDX 15 1 16 2 17 3 14 5 13 6 12 7 18 8 11 9 19 10 8 11 20 12
REMARK SMILES IDX 6 13 5 14 7 15 4 16 2 17 3 18 9 19 10 20 1 21
REMARK H PARENT 17 4
ROOT
ATOM      1  C   UNL     1      97.330 108.332 112.964  1.00  0.00    -0.087 C 
ATOM      2  C   UNL     1      97.445 108.505 114.414  1.00  0.00     0.155 C 
ENDROOT
BRANCH   2   3
ATOM      3  S   UNL     1      98.079 107.013 115.227  1.00  0.00    -0.166 SA
ATOM      4  H   UNL     1      97.333 106.136 114.539  1.00  0.00     0.103 HD
ENDBRANCH   2   3
BRANCH   1   5
ATOM      5  C   UNL     1      97.234 108.195 111.775  1.00  0.00    -0.066 C 
ATOM      6  C   UNL     1      97.120 108.028 110.360  1.00  0.00     0.025 A 
ATOM      7  C   UNL     1      98.091 107.300 109.670  1.00  0.00     0.028 A 
ATOM      8  C   UNL     1      96.031 108.600 109.679  1.00  0.00     0.018 A 
ATOM      9  C   UNL     1      97.946 107.161 108.301  1.00  0.00     0.035 A 
ATOM     10  C   UNL     1      95.892 108.456 108.296  1.00  0.00     0.010 A 
ATOM     11  C   UNL     1      98.857 106.425 107.337  1.00  0.00     0.299 C 
ATOM     12  C   UNL     1      96.854 107.733 107.611  1.00  0.00    -0.008 A 
ATOM     13  C   UNL     1      98.148 106.650 106.014  1.00  0.00     0.034 A 
ATOM     14  C   UNL     1      96.979 107.419 106.204  1.00  0.00    -0.008 A 
ATOM     15  C   UNL     1      98.525 106.202 104.760  1.00  0.00     0.014 A 
ATOM     16  C   UNL     1      96.172 107.749 105.128  1.00  0.00     0.009 A 
ATOM     17  C   UNL     1      97.711 106.534 103.675  1.00  0.00    -0.051 A 
ATOM     18  C   UNL     1      96.546 107.300 103.857  1.00  0.00     0.004 A 
ATOM     19  F   UNL     1      98.972 105.103 107.642  1.00  0.00    -0.196 F 
ATOM     20  F   UNL     1     100.123 106.925 107.337  1.00  0.00    -0.196 F 
ATOM     21  C   UNL     1      98.080 106.071 102.306  1.00  0.00     0.044 C 
ENDBRANCH   1   5
TORSDOF 2
ENDMDL
MODEL 2
REMARK VINA RESULT:      -6.8      1.267      2.136
REMARK SMILES Cc1ccc2c(c1)C(F)(F)c1cc(C#CCS)ccc1-2
REMARK SMILES IDX 15 1 16 2 17 3 14 5 13 6 12 7 18 8 11 9 19 10 8 11 20 12
REMARK SMILES IDX 6 13 5 14 7 15 4 16 2 17 3 18 9 19 10 20 1 21
REMARK H PARENT 17 4
ROOT
ATOM      1  C   UNL     1      97.152 108.326 110.848  1.00  0.00    -0.087 C 
ATOM      2  C   UNL     1      97.317 108.564 112.283  1.00  0.00     0.155 C 
ENDROOT
BRANCH   2   3
ATOM      3  S   UNL     1      97.388 107.016 113.225  1.00  0.00    -0.166 SA
ATOM      4  H   UNL     1      96.199 107.152 113.831  1.00  0.00     0.103 HD
ENDBRANCH   2   3
BRANCH   1   5
ATOM      5  C   UNL     1      97.017 108.135 109.670  1.00  0.00    -0.066 C 
ATOM      6  C   UNL     1      96.857 107.904 108.268  1.00  0.00     0.025 A 
ATOM      7  C   UNL     1      97.906 107.349 107.535  1.00  0.00     0.028 A 
ATOM      8  C   UNL     1      95.642 108.241 107.644  1.00  0.00     0.018 A 
ATOM      9  C   UNL     1      97.713 107.141 106.181  1.00  0.00     0.035 A 
ATOM     10  C   UNL     1      95.455 108.029 106.276  1.00  0.00     0.010 A 
ATOM     11  C   UNL     1      98.690 106.557 105.178  1.00  0.00     0.299 C 
ATOM     12  C   UNL     1      96.496 107.477 105.548  1.00  0.00    -0.008 A 
ATOM     13  C   UNL     1      97.878 106.603 103.897  1.00  0.00     0.034 A 
ATOM     14  C   UNL     1      96.598 107.146 104.143  1.00  0.00    -0.008 A 
ATOM     15  C   UNL     1      98.261 106.194 102.632  1.00  0.00     0.014 A 
ATOM     16  C   UNL     1      95.684 107.285 103.112  1.00  0.00     0.009 A 
ATOM     17  C   UNL     1      97.339 106.332 101.593  1.00  0.00    -0.051 A 
ATOM     18  C   UNL     1      96.063 106.873 101.831  1.00  0.00     0.004 A 
ATOM     19  F   UNL     1      99.069 105.290 105.504  1.00  0.00    -0.196 F 
ATOM     20  F   UNL     1      99.837 107.284 105.090  1.00  0.00    -0.196 F 
ATOM     21  C   UNL     1      97.711 105.902 100.214  1.00  0.00     0.044 C 
ENDBRANCH   1   5
TORSDOF 2
ENDMDL
MODEL 3
REMARK VINA RESULT:      -6.0     12.870     14.695
REMARK SMILES Cc1ccc2c(c1)C(F)(F)c1cc(C#CCS)ccc1-2
REMARK SMILES IDX 15 1 16 2 17 3 14 5 13 6 12 7 18 8 11 9 19 10 8 11 20 12
REMARK SMILES IDX 6 13 5 14 7 15 4 16 2 17 3 18 9 19 10 20 1 21
REMARK H PARENT 17 4
ROOT
ATOM      1  C   UNL     1      99.713  95.163 108.456  1.00  0.00    -0.087 C 
ATOM      2  C   UNL     1      99.397  95.676 109.791  1.00  0.00     0.155 C 
ENDROOT
BRANCH   2   3
ATOM      3  S   UNL     1      97.630  96.040 109.976  1.00  0.00    -0.166 SA
ATOM      4  H   UNL     1      97.764  96.943 110.959  1.00  0.00     0.103 HD
ENDBRANCH   2   3
BRANCH   1   5
ATOM      5  C   UNL     1      99.977  94.742 107.362  1.00  0.00    -0.066 C 
ATOM      6  C   UNL     1     100.290  94.244 106.059  1.00  0.00     0.025 A 
ATOM      7  C   UNL     1      99.394  94.447 105.008  1.00  0.00     0.028 A 
ATOM      8  C   UNL     1     101.497  93.553 105.852  1.00  0.00     0.018 A 
ATOM      9  C   UNL     1      99.733  93.949 103.762  1.00  0.00     0.035 A 
ATOM     10  C   UNL     1     101.832  93.053 104.591  1.00  0.00     0.010 A 
ATOM     11  C   UNL     1      98.936  94.040 102.475  1.00  0.00     0.299 C 
ATOM     12  C   UNL     1     100.944  93.255 103.548  1.00  0.00    -0.008 A 
ATOM     13  C   UNL     1      99.845  93.310 101.502  1.00  0.00     0.034 A 
ATOM     14  C   UNL     1     101.012  92.862 102.157  1.00  0.00    -0.008 A 
ATOM     15  C   UNL     1      99.634  93.075 100.155  1.00  0.00     0.014 A 
ATOM     16  C   UNL     1     101.986  92.167 101.460  1.00  0.00     0.009 A 
ATOM     17  C   UNL     1     100.616  92.376  99.451  1.00  0.00    -0.051 A 
ATOM     18  C   UNL     1     101.781  91.925 100.098  1.00  0.00     0.004 A 
ATOM     19  F   UNL     1      98.706  95.328 102.099  1.00  0.00    -0.196 F 
ATOM     20  F   UNL     1      97.713  93.452 102.580  1.00  0.00    -0.196 F 
ATOM     21  C   UNL     1     100.430  92.102  97.997  1.00  0.00     0.044 C 
ENDBRANCH   1   5
TORSDOF 2
ENDMDL
MODEL 4
REMARK VINA RESULT:      -5.8     13.579     14.928
REMARK SMILES Cc1ccc2c(c1)C(F)(F)c1cc(C#CCS)ccc1-2
REMARK SMILES IDX 15 1 16 2 17 3 14 5 13 6 12 7 18 8 11 9 19 10 8 11 20 12
REMARK SMILES IDX 6 13 5 14 7 15 4 16 2 17 3 18 9 19 10 20 1 21
REMARK H PARENT 17 4
ROOT
ATOM      1  C   UNL     1      99.501  98.301 115.267  1.00  0.00    -0.087 C 
ATOM      2  C   UNL     1      98.306  98.983 115.770  1.00  0.00     0.155 C 
ENDROOT
BRANCH   2   3
ATOM      3  S   UNL     1      98.679 100.655 116.366  1.00  0.00    -0.166 SA
ATOM      4  H   UNL     1      98.099 100.522 117.567  1.00  0.00     0.103 HD
ENDBRANCH   2   3
BRANCH   1   5
ATOM      5  C   UNL     1     100.478  97.739 114.853  1.00  0.00    -0.066 C 
ATOM      6  C   UNL     1     101.641  97.067 114.363  1.00  0.00     0.025 A 
ATOM      7  C   UNL     1     102.607  96.612 115.261  1.00  0.00     0.028 A 
ATOM      8  C   UNL     1     101.798  96.874 112.979  1.00  0.00     0.018 A 
ATOM      9  C   UNL     1     103.717  95.967 114.748  1.00  0.00     0.035 A 
ATOM     10  C   UNL     1     102.923  96.222 112.468  1.00  0.00     0.010 A 
ATOM     11  C   UNL     1     104.894  95.387 115.510  1.00  0.00     0.299 C 
ATOM     12  C   UNL     1     103.881  95.770 113.359  1.00  0.00    -0.008 A 
ATOM     13  C   UNL     1     105.747  94.835 114.382  1.00  0.00     0.034 A 
ATOM     14  C   UNL     1     105.129  95.073 113.134  1.00  0.00    -0.008 A 
ATOM     15  C   UNL     1     106.962  94.182 114.476  1.00  0.00     0.014 A 
ATOM     16  C   UNL     1     105.734  94.655 111.961  1.00  0.00     0.009 A 
ATOM     17  C   UNL     1     107.571  93.759 113.294  1.00  0.00    -0.051 A 
ATOM     18  C   UNL     1     106.963  93.994 112.048  1.00  0.00     0.004 A 
ATOM     19  F   UNL     1     104.513  94.420 116.390  1.00  0.00    -0.196 F 
ATOM     20  F   UNL     1     105.551  96.328 116.243  1.00  0.00    -0.196 F 
ATOM     21  C   UNL     1     108.882  93.050 113.350  1.00  0.00     0.044 C 
ENDBRANCH   1   5
TORSDOF 2
ENDMDL
MODEL 5
REMARK VINA RESULT:      -5.6     13.399     14.905
REMARK SMILES Cc1ccc2c(c1)C(F)(F)c1cc(C#CCS)ccc1-2
REMARK SMILES IDX 15 1 16 2 17 3 14 5 13 6 12 7 18 8 11 9 19 10 8 11 20 12
REMARK SMILES IDX 6 13 5 14 7 15 4 16 2 17 3 18 9 19 10 20 1 21
REMARK H PARENT 17 4
ROOT
ATOM      1  C   UNL     1      99.576  98.934 115.600  1.00  0.00    -0.087 C 
ATOM      2  C   UNL     1      98.370  99.765 115.642  1.00  0.00     0.155 C 
ENDROOT
BRANCH   2   3
ATOM      3  S   UNL     1      98.627 101.284 116.598  1.00  0.00    -0.166 SA
ATOM      4  H   UNL     1      98.583 102.128 115.557  1.00  0.00     0.103 HD
ENDBRANCH   2   3
BRANCH   1   5
ATOM      5  C   UNL     1     100.562  98.250 115.564  1.00  0.00    -0.066 C 
ATOM      6  C   UNL     1     101.738  97.438 115.519  1.00  0.00     0.025 A 
ATOM      7  C   UNL     1     102.413  97.265 114.310  1.00  0.00     0.028 A 
ATOM      8  C   UNL     1     102.201  96.822 116.695  1.00  0.00     0.018 A 
ATOM      9  C   UNL     1     103.546  96.472 114.307  1.00  0.00     0.035 A 
ATOM     10  C   UNL     1     103.346  96.021 116.684  1.00  0.00     0.010 A 
ATOM     11  C   UNL     1     104.445  96.133 113.132  1.00  0.00     0.299 C 
ATOM     12  C   UNL     1     104.016  95.850 115.485  1.00  0.00    -0.008 A 
ATOM     13  C   UNL     1     105.483  95.242 113.789  1.00  0.00     0.034 A 
ATOM     14  C   UNL     1     105.207  95.094 115.166  1.00  0.00    -0.008 A 
ATOM     15  C   UNL     1     106.571  94.626 113.197  1.00  0.00     0.014 A 
ATOM     16  C   UNL     1     106.028  94.317 115.966  1.00  0.00     0.009 A 
ATOM     17  C   UNL     1     107.399  93.844 114.004  1.00  0.00    -0.051 A 
ATOM     18  C   UNL     1     107.130  93.691 115.376  1.00  0.00     0.004 A 
ATOM     19  F   UNL     1     104.998  97.243 112.569  1.00  0.00    -0.196 F 
ATOM     20  F   UNL     1     103.773  95.497 112.134  1.00  0.00    -0.196 F 
ATOM     21  C   UNL     1     108.584  93.163 113.406  1.00  0.00     0.044 C 
ENDBRANCH   1   5
TORSDOF 2
ENDMDL
MODEL 6
REMARK VINA RESULT:      -5.4     12.625     14.180
REMARK SMILES Cc1ccc2c(c1)C(F)(F)c1cc(C#CCS)ccc1-2
REMARK SMILES IDX 15 1 16 2 17 3 14 5 13 6 12 7 18 8 11 9 19 10 8 11 20 12
REMARK SMILES IDX 6 13 5 14 7 15 4 16 2 17 3 18 9 19 10 20 1 21
REMARK H PARENT 17 4
ROOT
ATOM      1  C   UNL     1      97.989  95.691 109.116  1.00  0.00    -0.087 C 
ATOM      2  C   UNL     1      97.321  96.289 110.274  1.00  0.00     0.155 C 
ENDROOT
BRANCH   2   3
ATOM      3  S   UNL     1      98.269  96.050 111.802  1.00  0.00    -0.166 SA
ATOM      4  H   UNL     1      97.715  97.062 112.485  1.00  0.00     0.103 HD
ENDBRANCH   2   3
BRANCH   1   5
ATOM      5  C   UNL     1      98.534  95.203 108.163  1.00  0.00    -0.066 C 
ATOM      6  C   UNL     1      99.182  94.624 107.028  1.00  0.00     0.025 A 
ATOM      7  C   UNL     1      98.598  94.738 105.766  1.00  0.00     0.028 A 
ATOM      8  C   UNL     1     100.402  93.945 107.197  1.00  0.00     0.018 A 
ATOM      9  C   UNL     1      99.255  94.165 104.692  1.00  0.00     0.035 A 
ATOM     10  C   UNL     1     101.060  93.368 106.108  1.00  0.00     0.010 A 
ATOM     11  C   UNL     1      98.829  94.152 103.236  1.00  0.00     0.299 C 
ATOM     12  C   UNL     1     100.481  93.481 104.856  1.00  0.00    -0.008 A 
ATOM     13  C   UNL     1      99.964  93.377 102.593  1.00  0.00     0.034 A 
ATOM     14  C   UNL     1     100.916  92.997 103.564  1.00  0.00    -0.008 A 
ATOM     15  C   UNL     1     100.119  93.048 101.258  1.00  0.00     0.014 A 
ATOM     16  C   UNL     1     102.041  92.276 103.200  1.00  0.00     0.009 A 
ATOM     17  C   UNL     1     101.253  92.322 100.891  1.00  0.00    -0.051 A 
ATOM     18  C   UNL     1     102.205  91.939 101.852  1.00  0.00     0.004 A 
ATOM     19  F   UNL     1      98.705  95.407 102.724  1.00  0.00    -0.196 F 
ATOM     20  F   UNL     1      97.622  93.549 103.055  1.00  0.00    -0.196 F 
ATOM     21  C   UNL     1     101.460  91.947  99.462  1.00  0.00     0.044 C 
ENDBRANCH   1   5
TORSDOF 2
ENDMDL
MODEL 7
REMARK VINA RESULT:      -5.3      5.889      9.213
REMARK SMILES Cc1ccc2c(c1)C(F)(F)c1cc(C#CCS)ccc1-2
REMARK SMILES IDX 15 1 16 2 17 3 14 5 13 6 12 7 18 8 11 9 19 10 8 11 20 12
REMARK SMILES IDX 6 13 5 14 7 15 4 16 2 17 3 18 9 19 10 20 1 21
REMARK H PARENT 17 4
ROOT
ATOM      1  C   UNL     1      96.424 108.818 112.361  1.00  0.00    -0.087 C 
ATOM      2  C   UNL     1      95.915 109.943 111.572  1.00  0.00     0.155 C 
ENDROOT
BRANCH   2   3
ATOM      3  S   UNL     1      95.459 111.353 112.616  1.00  0.00    -0.166 SA
ATOM      4  H   UNL     1      95.507 112.281 111.649  1.00  0.00     0.103 HD
ENDBRANCH   2   3
BRANCH   1   5
ATOM      5  C   UNL     1      96.841 107.894 113.004  1.00  0.00    -0.066 C 
ATOM      6  C   UNL     1      97.338 106.793 113.768  1.00  0.00     0.025 A 
ATOM      7  C   UNL     1      96.908 105.498 113.474  1.00  0.00     0.028 A 
ATOM      8  C   UNL     1      98.256 107.027 114.807  1.00  0.00     0.018 A 
ATOM      9  C   UNL     1      97.412 104.459 114.235  1.00  0.00     0.035 A 
ATOM     10  C   UNL     1      98.760 105.972 115.572  1.00  0.00     0.010 A 
ATOM     11  C   UNL     1      97.103 102.978 114.113  1.00  0.00     0.299 C 
ATOM     12  C   UNL     1      98.334 104.687 115.281  1.00  0.00    -0.008 A 
ATOM     13  C   UNL     1      97.963 102.395 115.220  1.00  0.00     0.034 A 
ATOM     14  C   UNL     1      98.672 103.418 115.886  1.00  0.00    -0.008 A 
ATOM     15  C   UNL     1      98.090 101.067 115.587  1.00  0.00     0.014 A 
ATOM     16  C   UNL     1      99.521 103.114 116.937  1.00  0.00     0.009 A 
ATOM     17  C   UNL     1      98.947 100.760 116.645  1.00  0.00    -0.051 A 
ATOM     18  C   UNL     1      99.656 101.774 117.314  1.00  0.00     0.004 A 
ATOM     19  F   UNL     1      97.430 102.482 112.889  1.00  0.00    -0.196 F 
ATOM     20  F   UNL     1      95.780 102.710 114.290  1.00  0.00    -0.196 F 
ATOM     21  C   UNL     1      99.114  99.341 117.073  1.00  0.00     0.044 C 
ENDBRANCH   1   5
TORSDOF 2
ENDMDL
MODEL 8
REMARK VINA RESULT:      -5.3     14.160     16.011
REMARK SMILES Cc1ccc2c(c1)C(F)(F)c1cc(C#CCS)ccc1-2
REMARK SMILES IDX 15 1 16 2 17 3 14 5 13 6 12 7 18 8 11 9 19 10 8 11 20 12
REMARK SMILES IDX 6 13 5 14 7 15 4 16 2 17 3 18 9 19 10 20 1 21
REMARK H PARENT 17 4
ROOT
ATOM      1  C   UNL     1      99.886  95.496 109.758  1.00  0.00    -0.087 C 
ATOM      2  C   UNL     1      98.974  95.494 108.611  1.00  0.00     0.155 C 
ENDROOT
BRANCH   2   3
ATOM      3  S   UNL     1      99.732  94.748 107.142  1.00  0.00    -0.166 SA
ATOM      4  H   UNL     1      99.167  93.539 107.277  1.00  0.00     0.103 HD
ENDBRANCH   2   3
BRANCH   1   5
ATOM      5  C   UNL     1     100.631  95.499 110.700  1.00  0.00    -0.066 C 
ATOM      6  C   UNL     1     101.520  95.503 111.819  1.00  0.00     0.025 A 
ATOM      7  C   UNL     1     102.525  94.539 111.906  1.00  0.00     0.028 A 
ATOM      8  C   UNL     1     101.370  96.479 112.821  1.00  0.00     0.018 A 
ATOM      9  C   UNL     1     103.365  94.576 113.005  1.00  0.00     0.035 A 
ATOM     10  C   UNL     1     102.222  96.509 113.928  1.00  0.00     0.010 A 
ATOM     11  C   UNL     1     104.522  93.648 113.326  1.00  0.00     0.299 C 
ATOM     12  C   UNL     1     103.220  95.553 114.015  1.00  0.00    -0.008 A 
ATOM     13  C   UNL     1     105.015  94.219 114.643  1.00  0.00     0.034 A 
ATOM     14  C   UNL     1     104.235  95.333 115.022  1.00  0.00    -0.008 A 
ATOM     15  C   UNL     1     106.068  93.772 115.422  1.00  0.00     0.014 A 
ATOM     16  C   UNL     1     104.506  96.013 116.197  1.00  0.00     0.009 A 
ATOM     17  C   UNL     1     106.342  94.459 116.606  1.00  0.00    -0.051 A 
ATOM     18  C   UNL     1     105.569  95.569 116.990  1.00  0.00     0.004 A 
ATOM     19  F   UNL     1     105.483  93.668 112.362  1.00  0.00    -0.196 F 
ATOM     20  F   UNL     1     104.127  92.350 113.440  1.00  0.00    -0.196 F 
ATOM     21  C   UNL     1     107.469  94.012 117.475  1.00  0.00     0.044 C 
ENDBRANCH   1   5
TORSDOF 2
ENDMDL
MODEL 9
REMARK VINA RESULT:      -5.3     12.473     13.920
REMARK SMILES Cc1ccc2c(c1)C(F)(F)c1cc(C#CCS)ccc1-2
REMARK SMILES IDX 15 1 16 2 17 3 14 5 13 6 12 7 18 8 11 9 19 10 8 11 20 12
REMARK SMILES IDX 6 13 5 14 7 15 4 16 2 17 3 18 9 19 10 20 1 21
REMARK H PARENT 17 4
ROOT
ATOM      1  C   UNL     1      99.672  99.216 116.565  1.00  0.00    -0.087 C 
ATOM      2  C   UNL     1      98.535  99.983 117.079  1.00  0.00     0.155 C 
ENDROOT
BRANCH   2   3
ATOM      3  S   UNL     1      98.108 101.372 115.995  1.00  0.00    -0.166 SA
ATOM      4  H   UNL     1      99.331 101.920 115.959  1.00  0.00     0.103 HD
ENDBRANCH   2   3
BRANCH   1   5
ATOM      5  C   UNL     1     100.604  98.585 116.146  1.00  0.00    -0.066 C 
ATOM      6  C   UNL     1     101.714  97.836 115.646  1.00  0.00     0.025 A 
ATOM      7  C   UNL     1     101.827  97.601 114.275  1.00  0.00     0.028 A 
ATOM      8  C   UNL     1     102.680  97.344 116.542  1.00  0.00     0.018 A 
ATOM      9  C   UNL     1     102.916  96.872 113.829  1.00  0.00     0.035 A 
ATOM     10  C   UNL     1     103.775  96.607 116.085  1.00  0.00     0.010 A 
ATOM     11  C   UNL     1     103.259  96.487 112.403  1.00  0.00     0.299 C 
ATOM     12  C   UNL     1     103.889  96.374 114.725  1.00  0.00    -0.008 A 
ATOM     13  C   UNL     1     104.548  95.709 112.598  1.00  0.00     0.034 A 
ATOM     14  C   UNL     1     104.892  95.659 113.967  1.00  0.00    -0.008 A 
ATOM     15  C   UNL     1     105.332  95.105 111.631  1.00  0.00     0.014 A 
ATOM     16  C   UNL     1     106.036  94.996 114.379  1.00  0.00     0.009 A 
ATOM     17  C   UNL     1     106.485  94.437 112.047  1.00  0.00    -0.051 A 
ATOM     18  C   UNL     1     106.833  94.383 113.408  1.00  0.00     0.004 A 
ATOM     19  F   UNL     1     103.429  97.574 111.601  1.00  0.00    -0.196 F 
ATOM     20  F   UNL     1     102.285  95.735 111.820  1.00  0.00    -0.196 F 
ATOM     21  C   UNL     1     107.359  93.773 111.037  1.00  0.00     0.044 C 
ENDBRANCH   1   5
TORSDOF 2
ENDMDL
MODEL 10
REMARK VINA RESULT:      -5.2     13.454     15.140
REMARK SMILES Cc1ccc2c(c1)C(F)(F)c1cc(C#CCS)ccc1-2
REMARK SMILES IDX 15 1 16 2 17 3 14 5 13 6 12 7 18 8 11 9 19 10 8 11 20 12
REMARK SMILES IDX 6 13 5 14 7 15 4 16 2 17 3 18 9 19 10 20 1 21
REMARK H PARENT 17 4
ROOT
ATOM      1  C   UNL     1      97.944  96.052 109.828  1.00  0.00    -0.087 C 
ATOM      2  C   UNL     1      96.729  96.607 109.227  1.00  0.00     0.155 C 
ENDROOT
BRANCH   2   3
ATOM      3  S   UNL     1      96.567  96.151 107.479  1.00  0.00    -0.166 SA
ATOM      4  H   UNL     1      96.167  97.355 107.044  1.00  0.00     0.103 HD
ENDBRANCH   2   3
BRANCH   1   5
ATOM      5  C   UNL     1      98.938  95.598 110.325  1.00  0.00    -0.066 C 
ATOM      6  C   UNL     1     100.122  95.060 110.919  1.00  0.00     0.025 A 
ATOM      7  C   UNL     1     101.066  95.920 111.481  1.00  0.00     0.028 A 
ATOM      8  C   UNL     1     100.321  93.668 110.928  1.00  0.00     0.018 A 
ATOM      9  C   UNL     1     102.198  95.361 112.046  1.00  0.00     0.035 A 
ATOM     10  C   UNL     1     101.468  93.111 111.500  1.00  0.00     0.010 A 
ATOM     11  C   UNL     1     103.358  96.076 112.713  1.00  0.00     0.299 C 
ATOM     12  C   UNL     1     102.405  93.964 112.058  1.00  0.00    -0.008 A 
ATOM     13  C   UNL     1     104.249  94.912 113.106  1.00  0.00     0.034 A 
ATOM     14  C   UNL     1     103.666  93.688 112.711  1.00  0.00    -0.008 A 
ATOM     15  C   UNL     1     105.469  94.957 113.758  1.00  0.00     0.014 A 
ATOM     16  C   UNL     1     104.309  92.489 112.968  1.00  0.00     0.009 A 
ATOM     17  C   UNL     1     106.116  93.749 114.018  1.00  0.00    -0.051 A 
ATOM     18  C   UNL     1     105.543  92.526 113.627  1.00  0.00     0.004 A 
ATOM     19  F   UNL     1     102.962  96.810 113.789  1.00  0.00    -0.196 F 
ATOM     20  F   UNL     1     103.983  96.945 111.872  1.00  0.00    -0.196 F 
ATOM     21  C   UNL     1     107.433  93.752 114.720  1.00  0.00     0.044 C 
ENDBRANCH   1   5
TORSDOF 2
ENDMDL
MODEL 11
REMARK VINA RESULT:      -5.2     14.913     16.756
REMARK SMILES Cc1ccc2c(c1)C(F)(F)c1cc(C#CCS)ccc1-2
REMARK SMILES IDX 15 1 16 2 17 3 14 5 13 6 12 7 18 8 11 9 19 10 8 11 20 12
REMARK SMILES IDX 6 13 5 14 7 15 4 16 2 17 3 18 9 19 10 20 1 21
REMARK H PARENT 17 4
ROOT
ATOM      1  C   UNL     1      99.831  93.927 109.529  1.00  0.00    -0.087 C 
ATOM      2  C   UNL     1      98.911  94.138 108.408  1.00  0.00     0.155 C 
ENDROOT
BRANCH   2   3
ATOM      3  S   UNL     1      99.615  95.239 107.150  1.00  0.00    -0.166 SA
ATOM      4  H   UNL     1     100.577  95.761 107.926  1.00  0.00     0.103 HD
ENDBRANCH   2   3
BRANCH   1   5
ATOM      5  C   UNL     1     100.582  93.752 110.449  1.00  0.00    -0.066 C 
ATOM      6  C   UNL     1     101.475  93.546 111.546  1.00  0.00     0.025 A 
ATOM      7  C   UNL     1     102.397  94.538 111.882  1.00  0.00     0.028 A 
ATOM      8  C   UNL     1     101.414  92.344 112.274  1.00  0.00     0.018 A 
ATOM      9  C   UNL     1     103.244  94.301 112.950  1.00  0.00     0.035 A 
ATOM     10  C   UNL     1     102.274  92.112 113.350  1.00  0.00     0.010 A 
ATOM     11  C   UNL     1     104.321  95.213 113.506  1.00  0.00     0.299 C 
ATOM     12  C   UNL     1     103.188  93.096 113.685  1.00  0.00    -0.008 A 
ATOM     13  C   UNL     1     104.871  94.377 114.647  1.00  0.00     0.034 A 
ATOM     14  C   UNL     1     104.189  93.143 114.728  1.00  0.00    -0.008 A 
ATOM     15  C   UNL     1     105.889  94.702 115.526  1.00  0.00     0.014 A 
ATOM     16  C   UNL     1     104.527  92.217 115.700  1.00  0.00     0.009 A 
ATOM     17  C   UNL     1     106.229  93.769 116.506  1.00  0.00    -0.051 A 
ATOM     18  C   UNL     1     105.555  92.538 116.593  1.00  0.00     0.004 A 
ATOM     19  F   UNL     1     103.819  96.404 113.933  1.00  0.00    -0.196 F 
ATOM     20  F   UNL     1     105.273  95.514 112.580  1.00  0.00    -0.196 F 
ATOM     21  C   UNL     1     107.320  94.079 117.475  1.00  0.00     0.044 C 
ENDBRANCH   1   5
TORSDOF 2
ENDMDL
MODEL 12
REMARK VINA RESULT:      -5.2     12.327     13.607
REMARK SMILES Cc1ccc2c(c1)C(F)(F)c1cc(C#CCS)ccc1-2
REMARK SMILES IDX 15 1 16 2 17 3 14 5 13 6 12 7 18 8 11 9 19 10 8 11 20 12
REMARK SMILES IDX 6 13 5 14 7 15 4 16 2 17 3 18 9 19 10 20 1 21
REMARK H PARENT 17 4
ROOT
ATOM      1  C   UNL     1      98.252  95.873 110.002  1.00  0.00    -0.087 C 
ATOM      2  C   UNL     1      97.991  96.314 111.374  1.00  0.00     0.155 C 
ENDROOT
BRANCH   2   3
ATOM      3  S   UNL     1      99.387  95.964 112.477  1.00  0.00    -0.166 SA
ATOM      4  H   UNL     1      98.679  95.941 113.616  1.00  0.00     0.103 HD
ENDBRANCH   2   3
BRANCH   1   5
ATOM      5  C   UNL     1      98.463  95.513 108.876  1.00  0.00    -0.066 C 
ATOM      6  C   UNL     1      98.715  95.081 107.537  1.00  0.00     0.025 A 
ATOM      7  C   UNL     1      99.952  94.524 107.211  1.00  0.00     0.028 A 
ATOM      8  C   UNL     1      97.712  95.224 106.562  1.00  0.00     0.018 A 
ATOM      9  C   UNL     1     100.158  94.118 105.905  1.00  0.00     0.035 A 
ATOM     10  C   UNL     1      97.927  94.813 105.243  1.00  0.00     0.010 A 
ATOM     11  C   UNL     1     101.403  93.490 105.308  1.00  0.00     0.299 C 
ATOM     12  C   UNL     1      99.154  94.259 104.920  1.00  0.00    -0.008 A 
ATOM     13  C   UNL     1     100.983  93.292 103.863  1.00  0.00     0.034 A 
ATOM     14  C   UNL     1      99.663  93.751 103.665  1.00  0.00    -0.008 A 
ATOM     15  C   UNL     1     101.725  92.749 102.829  1.00  0.00     0.014 A 
ATOM     16  C   UNL     1      99.071  93.669 102.416  1.00  0.00     0.009 A 
ATOM     17  C   UNL     1     101.128  92.666 101.570  1.00  0.00    -0.051 A 
ATOM     18  C   UNL     1      99.814  93.122 101.365  1.00  0.00     0.004 A 
ATOM     19  F   UNL     1     101.731  92.317 105.916  1.00  0.00    -0.196 F 
ATOM     20  F   UNL     1     102.495  94.295 105.424  1.00  0.00    -0.196 F 
ATOM     21  C   UNL     1     101.892  92.086 100.427  1.00  0.00     0.044 C 
ENDBRANCH   1   5
TORSDOF 2
ENDMDL
MODEL 13
REMARK VINA RESULT:      -5.1     13.823     15.254
REMARK SMILES Cc1ccc2c(c1)C(F)(F)c1cc(C#CCS)ccc1-2
REMARK SMILES IDX 15 1 16 2 17 3 14 5 13 6 12 7 18 8 11 9 19 10 8 11 20 12
REMARK SMILES IDX 6 13 5 14 7 15 4 16 2 17 3 18 9 19 10 20 1 21
REMARK H PARENT 17 4
ROOT
ATOM      1  C   UNL     1      98.640  97.262 114.197  1.00  0.00    -0.087 C 
ATOM      2  C   UNL     1      97.303  97.836 114.031  1.00  0.00     0.155 C 
ENDROOT
BRANCH   2   3
ATOM      3  S   UNL     1      96.516  98.198 115.624  1.00  0.00    -0.166 SA
ATOM      4  H   UNL     1      95.269  98.336 115.150  1.00  0.00     0.103 HD
ENDBRANCH   2   3
BRANCH   1   5
ATOM      5  C   UNL     1      99.737  96.791 114.330  1.00  0.00    -0.066 C 
ATOM      6  C   UNL     1     101.044  96.233 114.486  1.00  0.00     0.025 A 
ATOM      7  C   UNL     1     101.842  96.016 113.362  1.00  0.00     0.028 A 
ATOM      8  C   UNL     1     101.510  95.909 115.773  1.00  0.00     0.018 A 
ATOM      9  C   UNL     1     103.100  95.475 113.555  1.00  0.00     0.035 A 
ATOM     10  C   UNL     1     102.782  95.361 115.959  1.00  0.00     0.010 A 
ATOM     11  C   UNL     1     104.145  95.148 112.504  1.00  0.00     0.299 C 
ATOM     12  C   UNL     1     103.574  95.147 114.844  1.00  0.00    -0.008 A 
ATOM     13  C   UNL     1     105.272  94.593 113.357  1.00  0.00     0.034 A 
ATOM     14  C   UNL     1     104.910  94.604 114.722  1.00  0.00    -0.008 A 
ATOM     15  C   UNL     1     106.504  94.124 112.937  1.00  0.00     0.014 A 
ATOM     16  C   UNL     1     105.789  94.139 115.685  1.00  0.00     0.009 A 
ATOM     17  C   UNL     1     107.391  93.656 113.908  1.00  0.00    -0.051 A 
ATOM     18  C   UNL     1     107.037  93.663 115.269  1.00  0.00     0.004 A 
ATOM     19  F   UNL     1     104.526  96.246 111.796  1.00  0.00    -0.196 F 
ATOM     20  F   UNL     1     103.695  94.245 111.590  1.00  0.00    -0.196 F 
ATOM     21  C   UNL     1     108.730  93.142 113.499  1.00  0.00     0.044 C 
ENDBRANCH   1   5
TORSDOF 2
ENDMDL
MODEL 14
REMARK VINA RESULT:      -5.1      3.439      7.107
REMARK SMILES Cc1ccc2c(c1)C(F)(F)c1cc(C#CCS)ccc1-2
REMARK SMILES IDX 15 1 16 2 17 3 14 5 13 6 12 7 18 8 11 9 19 10 8 11 20 12
REMARK SMILES IDX 6 13 5 14 7 15 4 16 2 17 3 18 9 19 10 20 1 21
REMARK H PARENT 17 4
ROOT
ATOM      1  C   UNL     1      97.482 106.752 103.018  1.00  0.00    -0.087 C 
ATOM      2  C   UNL     1      97.744 106.386 101.624  1.00  0.00     0.155 C 
ENDROOT
BRANCH   2   3
ATOM      3  S   UNL     1      96.268 106.565 100.586  1.00  0.00    -0.166 SA
ATOM      4  H   UNL     1      96.583 107.766 100.078  1.00  0.00     0.103 HD
ENDBRANCH   2   3
BRANCH   1   5
ATOM      5  C   UNL     1      97.271 107.050 104.162  1.00  0.00    -0.066 C 
ATOM      6  C   UNL     1      97.023 107.407 105.523  1.00  0.00     0.025 A 
ATOM      7  C   UNL     1      97.904 106.985 106.520  1.00  0.00     0.028 A 
ATOM      8  C   UNL     1      95.892 108.180 105.843  1.00  0.00     0.018 A 
ATOM      9  C   UNL     1      97.630 107.351 107.826  1.00  0.00     0.035 A 
ATOM     10  C   UNL     1      95.621 108.544 107.164  1.00  0.00     0.010 A 
ATOM     11  C   UNL     1      98.426 107.020 109.074  1.00  0.00     0.299 C 
ATOM     12  C   UNL     1      96.495 108.126 108.153  1.00  0.00    -0.008 A 
ATOM     13  C   UNL     1      97.604 107.703 110.151  1.00  0.00     0.034 A 
ATOM     14  C   UNL     1      96.480 108.343 109.584  1.00  0.00    -0.008 A 
ATOM     15  C   UNL     1      97.849 107.741 111.512  1.00  0.00     0.014 A 
ATOM     16  C   UNL     1      95.585 109.031 110.385  1.00  0.00     0.009 A 
ATOM     17  C   UNL     1      96.948 108.436 112.320  1.00  0.00    -0.051 A 
ATOM     18  C   UNL     1      95.826 109.074 111.762  1.00  0.00     0.004 A 
ATOM     19  F   UNL     1      99.700 107.497 109.015  1.00  0.00    -0.196 F 
ATOM     20  F   UNL     1      98.534 105.678 109.278  1.00  0.00    -0.196 F 
ATOM     21  C   UNL     1      97.175 108.503 113.793  1.00  0.00     0.044 C 
ENDBRANCH   1   5
TORSDOF 2
ENDMDL
MODEL 15
REMARK VINA RESULT:      -5.1     14.439     15.767
REMARK SMILES Cc1ccc2c(c1)C(F)(F)c1cc(C#CCS)ccc1-2
REMARK SMILES IDX 15 1 16 2 17 3 14 5 13 6 12 7 18 8 11 9 19 10 8 11 20 12
REMARK SMILES IDX 6 13 5 14 7 15 4 16 2 17 3 18 9 19 10 20 1 21
REMARK H PARENT 17 4
ROOT
ATOM      1  C   UNL     1      98.253  95.614 114.161  1.00  0.00    -0.087 C 
ATOM      2  C   UNL     1      96.860  95.903 114.512  1.00  0.00     0.155 C 
ENDROOT
BRANCH   2   3
ATOM      3  S   UNL     1      95.720  95.485 113.166  1.00  0.00    -0.166 SA
ATOM      4  H   UNL     1      96.402  96.104 112.191  1.00  0.00     0.103 HD
ENDBRANCH   2   3
BRANCH   1   5
ATOM      5  C   UNL     1      99.396  95.379 113.876  1.00  0.00    -0.066 C 
ATOM      6  C   UNL     1     100.756  95.096 113.539  1.00  0.00     0.025 A 
ATOM      7  C   UNL     1     101.645  94.694 114.536  1.00  0.00     0.028 A 
ATOM      8  C   UNL     1     101.181  95.228 112.205  1.00  0.00     0.018 A 
ATOM      9  C   UNL     1     102.953  94.429 114.170  1.00  0.00     0.035 A 
ATOM     10  C   UNL     1     102.504  94.960 111.844  1.00  0.00     0.010 A 
ATOM     11  C   UNL     1     104.098  93.982 115.060  1.00  0.00     0.299 C 
ATOM     12  C   UNL     1     103.387  94.560 112.832  1.00  0.00    -0.008 A 
ATOM     13  C   UNL     1     105.236  93.875 114.061  1.00  0.00     0.034 A 
ATOM     14  C   UNL     1     104.791  94.219 112.766  1.00  0.00    -0.008 A 
ATOM     15  C   UNL     1     106.547  93.502 114.303  1.00  0.00     0.014 A 
ATOM     16  C   UNL     1     105.667  94.192 111.693  1.00  0.00     0.009 A 
ATOM     17  C   UNL     1     107.429  93.475 113.221  1.00  0.00    -0.051 A 
ATOM     18  C   UNL     1     106.993  93.817 111.929  1.00  0.00     0.004 A 
ATOM     19  F   UNL     1     103.839  92.797 115.677  1.00  0.00    -0.196 F 
ATOM     20  F   UNL     1     104.363  94.876 116.051  1.00  0.00    -0.196 F 
ATOM     21  C   UNL     1     108.850  93.078 113.437  1.00  0.00     0.044 C 
ENDBRANCH   1   5
TORSDOF 2
ENDMDL
