MODEL 1
REMARK VINA RESULT:      -8.2      0.000      0.000
REMARK SMILES O=C(NCc1ccccc1)N1CCC(CN2CCc3ccccc3C2)CC1
REMARK SMILES IDX 1 1 11 2 3 3 14 4 13 5 26 6 12 7 27 8 2 9 4 11 5 12 6 13
REMARK SMILES IDX 10 14 7 15 9 16 8 17 15 18 16 19 17 20 25 21 18 22 24 23
REMARK SMILES IDX 19 24 23 25 20 26 22 27 21 28
REMARK H PARENT 3 10
ROOT
ATOM      1  O   UNL     1      98.328 105.655 106.981  1.00  0.00    -0.249 OA
ATOM      2  N   UNL     1      97.265 107.455 107.984  1.00  0.00    -0.325 N 
ATOM      3  N   UNL     1      96.278 106.292 106.176  1.00  0.00    -0.334 N 
ATOM      4  C   UNL     1      96.659 108.543 110.600  1.00  0.00     0.006 C 
ATOM      5  C   UNL     1      95.571 108.334 109.533  1.00  0.00     0.026 C 
ATOM      6  C   UNL     1      97.828 107.571 110.374  1.00  0.00     0.026 C 
ATOM      7  C   UNL     1      96.162 108.414 108.127  1.00  0.00     0.121 C 
ATOM      8  C   UNL     1      98.355 107.657 108.941  1.00  0.00     0.121 C 
ATOM      9  C   UNL     1      97.357 106.417 107.042  1.00  0.00     0.317 C 
ATOM     10  H   UNL     1      95.459 106.876 106.259  1.00  0.00     0.165 HD
ENDROOT
BRANCH   3  11
ATOM     11  C   UNL     1      96.226 105.269 105.155  1.00  0.00     0.153 C 
BRANCH  11  12
ATOM     12  C   UNL     1      96.511 105.821 103.790  1.00  0.00    -0.029 A 
ATOM     13  C   UNL     1      95.455 106.189 102.962  1.00  0.00     0.005 A 
ATOM     14  C   UNL     1      97.827 105.962 103.365  1.00  0.00     0.005 A 
ATOM     15  C   UNL     1      95.720 106.703 101.693  1.00  0.00     0.000 A 
ATOM     16  C   UNL     1      98.092 106.476 102.096  1.00  0.00     0.000 A 
ATOM     17  C   UNL     1      97.038 106.847 101.260  1.00  0.00     0.000 A 
ENDBRANCH  11  12
ENDBRANCH   3  11
BRANCH   4  18
ATOM     18  C   UNL     1      96.081 108.381 112.004  1.00  0.00     0.088 C 
BRANCH  18  19
ATOM     19  N   UNL     1      96.991 107.618 112.858  1.00  0.00    -0.298 NA
ATOM     20  C   UNL     1      97.102 108.235 114.185  1.00  0.00     0.089 C 
ATOM     21  C   UNL     1      96.533 106.224 112.980  1.00  0.00     0.120 C 
ATOM     22  C   UNL     1      98.211 107.548 114.988  1.00  0.00     0.051 C 
ATOM     23  C   UNL     1      97.346 105.409 113.960  1.00  0.00    -0.031 A 
ATOM     24  C   UNL     1      98.115 106.045 114.950  1.00  0.00    -0.042 A 
ATOM     25  C   UNL     1      97.287 104.010 113.924  1.00  0.00     0.005 A 
ATOM     26  C   UNL     1      98.843 105.272 115.865  1.00  0.00     0.004 A 
ATOM     27  C   UNL     1      98.007 103.249 114.845  1.00  0.00     0.000 A 
ATOM     28  C   UNL     1      98.786 103.880 115.813  1.00  0.00     0.000 A 
ENDBRANCH  18  19
ENDBRANCH   4  18
TORSDOF 4
ENDMDL
MODEL 2
REMARK VINA RESULT:      -7.9      1.876      9.766
REMARK SMILES O=C(NCc1ccccc1)N1CCC(CN2CCc3ccccc3C2)CC1
REMARK SMILES IDX 1 1 11 2 3 3 14 4 13 5 26 6 12 7 27 8 2 9 4 11 5 12 6 13
REMARK SMILES IDX 10 14 7 15 9 16 8 17 15 18 16 19 17 20 25 21 18 22 24 23
REMARK SMILES IDX 19 24 23 25 20 26 22 27 21 28
REMARK H PARENT 3 10
ROOT
ATOM      1  O   UNL     1      96.051 109.417 113.606  1.00  0.00    -0.249 OA
ATOM      2  N   UNL     1      97.073 109.001 111.567  1.00  0.00    -0.325 N 
ATOM      3  N   UNL     1      97.783 107.917 113.545  1.00  0.00    -0.334 N 
ATOM      4  C   UNL     1      96.435 108.489 108.787  1.00  0.00     0.006 C 
ATOM      5  C   UNL     1      97.376 107.575 109.588  1.00  0.00     0.026 C 
ATOM      6  C   UNL     1      95.455 109.209 109.728  1.00  0.00     0.026 C 
ATOM      7  C   UNL     1      98.070 108.349 110.707  1.00  0.00     0.121 C 
ATOM      8  C   UNL     1      96.194 109.931 110.855  1.00  0.00     0.121 C 
ATOM      9  C   UNL     1      96.912 108.821 112.950  1.00  0.00     0.317 C 
ATOM     10  H   UNL     1      98.450 107.386 113.004  1.00  0.00     0.165 HD
ENDROOT
BRANCH   3  11
ATOM     11  C   UNL     1      97.736 107.622 114.960  1.00  0.00     0.153 C 
BRANCH  11  12
ATOM     12  C   UNL     1      98.059 106.184 115.245  1.00  0.00    -0.029 A 
ATOM     13  C   UNL     1      97.977 105.245 114.222  1.00  0.00     0.005 A 
ATOM     14  C   UNL     1      98.437 105.804 116.527  1.00  0.00     0.005 A 
ATOM     15  C   UNL     1      98.277 103.909 114.486  1.00  0.00     0.000 A 
ATOM     16  C   UNL     1      98.737 104.468 116.792  1.00  0.00     0.000 A 
ATOM     17  C   UNL     1      98.657 103.520 115.771  1.00  0.00     0.000 A 
ENDBRANCH  11  12
ENDBRANCH   3  11
BRANCH   4  18
ATOM     18  C   UNL     1      95.681 107.695 107.723  1.00  0.00     0.088 C 
BRANCH  18  19
ATOM     19  N   UNL     1      96.440 107.647 106.473  1.00  0.00    -0.298 NA
ATOM     20  C   UNL     1      97.635 106.807 106.621  1.00  0.00     0.089 C 
ATOM     21  C   UNL     1      95.594 107.143 105.378  1.00  0.00     0.120 C 
ATOM     22  C   UNL     1      98.519 106.938 105.377  1.00  0.00     0.051 C 
ATOM     23  C   UNL     1      96.349 106.934 104.085  1.00  0.00    -0.031 A 
ATOM     24  C   UNL     1      97.747 106.792 104.091  1.00  0.00    -0.042 A 
ATOM     25  C   UNL     1      95.648 106.819 102.877  1.00  0.00     0.005 A 
ATOM     26  C   UNL     1      98.427 106.574 102.885  1.00  0.00     0.004 A 
ATOM     27  C   UNL     1      96.332 106.592 101.684  1.00  0.00     0.000 A 
ATOM     28  C   UNL     1      97.720 106.472 101.687  1.00  0.00     0.000 A 
ENDBRANCH  18  19
ENDBRANCH   4  18
TORSDOF 4
ENDMDL
MODEL 3
REMARK VINA RESULT:      -7.1     11.809     13.463
REMARK SMILES O=C(NCc1ccccc1)N1CCC(CN2CCc3ccccc3C2)CC1
REMARK SMILES IDX 1 1 11 2 3 3 14 4 13 5 26 6 12 7 27 8 2 9 4 11 5 12 6 13
REMARK SMILES IDX 10 14 7 15 9 16 8 17 15 18 16 19 17 20 25 21 18 22 24 23
REMARK SMILES IDX 19 24 23 25 20 26 22 27 21 28
REMARK H PARENT 3 10
ROOT
ATOM      1  O   UNL     1      97.808  95.706 108.181  1.00  0.00    -0.249 OA
ATOM      2  N   UNL     1      99.112  94.567 109.723  1.00  0.00    -0.325 N 
ATOM      3  N   UNL     1      99.460  94.323 107.397  1.00  0.00    -0.334 N 
ATOM      4  C   UNL     1     100.535  94.979 112.213  1.00  0.00     0.006 C 
ATOM      5  C   UNL     1     101.209  94.342 110.986  1.00  0.00     0.026 C 
ATOM      6  C   UNL     1      99.375  95.890 111.778  1.00  0.00     0.026 C 
ATOM      7  C   UNL     1     100.181  93.635 110.104  1.00  0.00     0.121 C 
ATOM      8  C   UNL     1      98.400  95.150 110.863  1.00  0.00     0.121 C 
ATOM      9  C   UNL     1      98.730  94.918 108.418  1.00  0.00     0.317 C 
ATOM     10  H   UNL     1     100.250  93.723 107.587  1.00  0.00     0.165 HD
ENDROOT
BRANCH   3  11
ATOM     11  C   UNL     1      99.188  94.589 106.001  1.00  0.00     0.153 C 
BRANCH  11  12
ATOM     12  C   UNL     1     100.208  93.958 105.100  1.00  0.00    -0.029 A 
ATOM     13  C   UNL     1     101.527  93.844 105.526  1.00  0.00     0.005 A 
ATOM     14  C   UNL     1      99.825  93.492 103.848  1.00  0.00     0.005 A 
ATOM     15  C   UNL     1     102.475  93.257 104.689  1.00  0.00     0.000 A 
ATOM     16  C   UNL     1     100.773  92.904 103.009  1.00  0.00     0.000 A 
ATOM     17  C   UNL     1     102.098  92.786 103.430  1.00  0.00     0.000 A 
ENDBRANCH  11  12
ENDBRANCH   3  11
BRANCH   4  18
ATOM     18  C   UNL     1     101.550  95.755 113.049  1.00  0.00     0.088 C 
BRANCH  18  19
ATOM     19  N   UNL     1     102.914  95.313 112.756  1.00  0.00    -0.298 NA
ATOM     20  C   UNL     1     103.786  96.462 112.482  1.00  0.00     0.089 C 
ATOM     21  C   UNL     1     103.449  94.524 113.878  1.00  0.00     0.120 C 
ATOM     22  C   UNL     1     105.146  95.973 111.975  1.00  0.00     0.051 C 
ATOM     23  C   UNL     1     104.904  94.150 113.707  1.00  0.00    -0.031 A 
ATOM     24  C   UNL     1     105.727  94.874 112.827  1.00  0.00    -0.042 A 
ATOM     25  C   UNL     1     105.455  93.116 114.475  1.00  0.00     0.005 A 
ATOM     26  C   UNL     1     107.080  94.529 112.701  1.00  0.00     0.004 A 
ATOM     27  C   UNL     1     106.805  92.787 114.350  1.00  0.00     0.000 A 
ATOM     28  C   UNL     1     107.616  93.491 113.462  1.00  0.00     0.000 A 
ENDBRANCH  18  19
ENDBRANCH   4  18
TORSDOF 4
ENDMDL
MODEL 4
REMARK VINA RESULT:      -7.0      8.240     12.238
REMARK SMILES O=C(NCc1ccccc1)N1CCC(CN2CCc3ccccc3C2)CC1
REMARK SMILES IDX 1 1 11 2 3 3 14 4 13 5 26 6 12 7 27 8 2 9 4 11 5 12 6 13
REMARK SMILES IDX 10 14 7 15 9 16 8 17 15 18 16 19 17 20 25 21 18 22 24 23
REMARK SMILES IDX 19 24 23 25 20 26 22 27 21 28
REMARK H PARENT 3 10
ROOT
ATOM      1  O   UNL     1     102.671  97.139 112.389  1.00  0.00    -0.249 OA
ATOM      2  N   UNL     1     102.375  97.207 114.688  1.00  0.00    -0.325 N 
ATOM      3  N   UNL     1     104.517  97.444 113.713  1.00  0.00    -0.334 N 
ATOM      4  C   UNL     1     100.645  98.364 116.704  1.00  0.00     0.006 C 
ATOM      5  C   UNL     1     102.175  98.496 116.771  1.00  0.00     0.026 C 
ATOM      6  C   UNL     1     100.185  98.171 115.249  1.00  0.00     0.026 C 
ATOM      7  C   UNL     1     102.857  97.323 116.070  1.00  0.00     0.121 C 
ATOM      8  C   UNL     1     100.927  97.016 114.579  1.00  0.00     0.121 C 
ATOM      9  C   UNL     1     103.154  97.254 113.520  1.00  0.00     0.317 C 
ATOM     10  H   UNL     1     104.908  97.595 114.632  1.00  0.00     0.165 HD
ENDROOT
BRANCH   3  11
ATOM     11  C   UNL     1     105.447  97.518 112.608  1.00  0.00     0.153 C 
BRANCH  11  12
ATOM     12  C   UNL     1     106.079  96.189 112.316  1.00  0.00    -0.029 A 
ATOM     13  C   UNL     1     106.466  95.365 113.366  1.00  0.00     0.005 A 
ATOM     14  C   UNL     1     106.272  95.795 110.997  1.00  0.00     0.005 A 
ATOM     15  C   UNL     1     107.054  94.130 113.095  1.00  0.00     0.000 A 
ATOM     16  C   UNL     1     106.859  94.559 110.724  1.00  0.00     0.000 A 
ATOM     17  C   UNL     1     107.250  93.726 111.774  1.00  0.00     0.000 A 
ENDBRANCH  11  12
ENDBRANCH   3  11
BRANCH   4  18
ATOM     18  C   UNL     1      99.965  99.578 117.333  1.00  0.00     0.088 C 
BRANCH  18  19
ATOM     19  N   UNL     1      99.342 100.415 116.309  1.00  0.00    -0.298 NA
ATOM     20  C   UNL     1      97.910 100.114 116.189  1.00  0.00     0.089 C 
ATOM     21  C   UNL     1      99.538 101.841 116.622  1.00  0.00     0.120 C 
ATOM     22  C   UNL     1      97.324 100.845 114.977  1.00  0.00     0.051 C 
ATOM     23  C   UNL     1      98.802 102.768 115.682  1.00  0.00    -0.031 A 
ATOM     24  C   UNL     1      97.713 102.300 114.927  1.00  0.00    -0.042 A 
ATOM     25  C   UNL     1      99.166 104.119 115.607  1.00  0.00     0.005 A 
ATOM     26  C   UNL     1      97.027 103.181 114.080  1.00  0.00     0.004 A 
ATOM     27  C   UNL     1      98.470 104.991 114.768  1.00  0.00     0.000 A 
ATOM     28  C   UNL     1      97.404 104.522 114.004  1.00  0.00     0.000 A 
ENDBRANCH  18  19
ENDBRANCH   4  18
TORSDOF 4
ENDMDL
MODEL 5
REMARK VINA RESULT:      -6.9      1.934      2.696
REMARK SMILES O=C(NCc1ccccc1)N1CCC(CN2CCc3ccccc3C2)CC1
REMARK SMILES IDX 1 1 11 2 3 3 14 4 13 5 26 6 12 7 27 8 2 9 4 11 5 12 6 13
REMARK SMILES IDX 10 14 7 15 9 16 8 17 15 18 16 19 17 20 25 21 18 22 24 23
REMARK SMILES IDX 19 24 23 25 20 26 22 27 21 28
REMARK H PARENT 3 10
ROOT
ATOM      1  O   UNL     1      98.586 105.744 107.087  1.00  0.00    -0.249 OA
ATOM      2  N   UNL     1      97.293 107.361 108.132  1.00  0.00    -0.325 N 
ATOM      3  N   UNL     1      96.500 106.182 106.241  1.00  0.00    -0.334 N 
ATOM      4  C   UNL     1      96.489 108.245 110.772  1.00  0.00     0.006 C 
ATOM      5  C   UNL     1      95.465 107.966 109.660  1.00  0.00     0.026 C 
ATOM      6  C   UNL     1      97.769 107.424 110.542  1.00  0.00     0.026 C 
ATOM      7  C   UNL     1      96.083 108.180 108.280  1.00  0.00     0.121 C 
ATOM      8  C   UNL     1      98.324 107.639 109.134  1.00  0.00     0.121 C 
ATOM      9  C   UNL     1      97.532 106.387 107.149  1.00  0.00     0.317 C 
ATOM     10  H   UNL     1      95.617 106.664 106.322  1.00  0.00     0.165 HD
ENDROOT
BRANCH   3  11
ATOM     11  C   UNL     1      96.596 105.209 105.175  1.00  0.00     0.153 C 
BRANCH  11  12
ATOM     12  C   UNL     1      96.664 105.861 103.824  1.00  0.00    -0.029 A 
ATOM     13  C   UNL     1      95.489 106.187 103.158  1.00  0.00     0.005 A 
ATOM     14  C   UNL     1      97.902 106.132 103.254  1.00  0.00     0.005 A 
ATOM     15  C   UNL     1      95.552 106.792 101.903  1.00  0.00     0.000 A 
ATOM     16  C   UNL     1      97.966 106.738 101.999  1.00  0.00     0.000 A 
ATOM     17  C   UNL     1      96.791 107.068 101.323  1.00  0.00     0.000 A 
ENDBRANCH  11  12
ENDBRANCH   3  11
BRANCH   4  18
ATOM     18  C   UNL     1      95.894 107.951 112.146  1.00  0.00     0.088 C 
BRANCH  18  19
ATOM     19  N   UNL     1      96.499 108.802 113.170  1.00  0.00    -0.298 NA
ATOM     20  C   UNL     1      95.523 109.131 114.217  1.00  0.00     0.089 C 
ATOM     21  C   UNL     1      97.675 108.140 113.759  1.00  0.00     0.120 C 
ATOM     22  C   UNL     1      96.109 110.186 115.161  1.00  0.00     0.051 C 
ATOM     23  C   UNL     1      98.270 108.900 114.922  1.00  0.00    -0.031 A 
ATOM     24  C   UNL     1      97.504 109.849 115.621  1.00  0.00    -0.042 A 
ATOM     25  C   UNL     1      99.574 108.616 115.349  1.00  0.00     0.005 A 
ATOM     26  C   UNL     1      98.065 110.526 116.713  1.00  0.00     0.004 A 
ATOM     27  C   UNL     1     100.121 109.287 116.443  1.00  0.00     0.000 A 
ATOM     28  C   UNL     1      99.368 110.243 117.123  1.00  0.00     0.000 A 
ENDBRANCH  18  19
ENDBRANCH   4  18
TORSDOF 4
ENDMDL
MODEL 6
REMARK VINA RESULT:      -6.9     12.221     13.468
REMARK SMILES O=C(NCc1ccccc1)N1CCC(CN2CCc3ccccc3C2)CC1
REMARK SMILES IDX 1 1 11 2 3 3 14 4 13 5 26 6 12 7 27 8 2 9 4 11 5 12 6 13
REMARK SMILES IDX 10 14 7 15 9 16 8 17 15 18 16 19 17 20 25 21 18 22 24 23
REMARK SMILES IDX 19 24 23 25 20 26 22 27 21 28
REMARK H PARENT 3 10
ROOT
ATOM      1  O   UNL     1      98.228  95.628 108.234  1.00  0.00    -0.249 OA
ATOM      2  N   UNL     1      98.722  93.760 109.516  1.00  0.00    -0.325 N 
ATOM      3  N   UNL     1      99.113  93.792 107.184  1.00  0.00    -0.334 N 
ATOM      4  C   UNL     1      99.959  93.012 112.027  1.00  0.00     0.006 C 
ATOM      5  C   UNL     1     100.362  92.359 110.695  1.00  0.00     0.026 C 
ATOM      6  C   UNL     1      99.393  94.421 111.787  1.00  0.00     0.026 C 
ATOM      7  C   UNL     1      99.203  92.385 109.701  1.00  0.00     0.121 C 
ATOM      8  C   UNL     1      98.267  94.400 110.753  1.00  0.00     0.121 C 
ATOM      9  C   UNL     1      98.657  94.471 108.307  1.00  0.00     0.317 C 
ATOM     10  H   UNL     1      99.516  92.869 107.248  1.00  0.00     0.165 HD
ENDROOT
BRANCH   3  11
ATOM     11  C   UNL     1      99.114  94.395 105.869  1.00  0.00     0.153 C 
BRANCH  11  12
ATOM     12  C   UNL     1     100.199  93.836 104.996  1.00  0.00    -0.029 A 
ATOM     13  C   UNL     1     101.509  93.805 105.462  1.00  0.00     0.005 A 
ATOM     14  C   UNL     1      99.886  93.355 103.731  1.00  0.00     0.005 A 
ATOM     15  C   UNL     1     102.518  93.287 104.652  1.00  0.00     0.000 A 
ATOM     16  C   UNL     1     100.895  92.835 102.919  1.00  0.00     0.000 A 
ATOM     17  C   UNL     1     102.211  92.801 103.380  1.00  0.00     0.000 A 
ENDBRANCH  11  12
ENDBRANCH   3  11
BRANCH   4  18
ATOM     18  C   UNL     1     101.143  93.059 112.990  1.00  0.00     0.088 C 
BRANCH  18  19
ATOM     19  N   UNL     1     101.978  94.232 112.733  1.00  0.00    -0.298 NA
ATOM     20  C   UNL     1     102.063  95.083 113.926  1.00  0.00     0.089 C 
ATOM     21  C   UNL     1     103.325  93.819 112.304  1.00  0.00     0.120 C 
ATOM     22  C   UNL     1     102.763  96.401 113.576  1.00  0.00     0.051 C 
ATOM     23  C   UNL     1     104.287  94.975 112.154  1.00  0.00    -0.031 A 
ATOM     24  C   UNL     1     104.038  96.198 112.801  1.00  0.00    -0.042 A 
ATOM     25  C   UNL     1     105.468  94.811 111.417  1.00  0.00     0.005 A 
ATOM     26  C   UNL     1     104.955  97.250 112.670  1.00  0.00     0.004 A 
ATOM     27  C   UNL     1     106.379  95.861 111.301  1.00  0.00     0.000 A 
ATOM     28  C   UNL     1     106.122  97.080 111.925  1.00  0.00     0.000 A 
ENDBRANCH  18  19
ENDBRANCH   4  18
TORSDOF 4
ENDMDL
MODEL 7
REMARK VINA RESULT:      -6.7     12.156     15.534
REMARK SMILES O=C(NCc1ccccc1)N1CCC(CN2CCc3ccccc3C2)CC1
REMARK SMILES IDX 1 1 11 2 3 3 14 4 13 5 26 6 12 7 27 8 2 9 4 11 5 12 6 13
REMARK SMILES IDX 10 14 7 15 9 16 8 17 15 18 16 19 17 20 25 21 18 22 24 23
REMARK SMILES IDX 19 24 23 25 20 26 22 27 21 28
REMARK H PARENT 3 10
ROOT
ATOM      1  O   UNL     1     101.869  92.347 112.305  1.00  0.00    -0.249 OA
ATOM      2  N   UNL     1     100.218  93.907 111.842  1.00  0.00    -0.325 N 
ATOM      3  N   UNL     1     102.192  94.509 112.996  1.00  0.00    -0.334 N 
ATOM      4  C   UNL     1      98.474  94.775 109.696  1.00  0.00     0.006 C 
ATOM      5  C   UNL     1      99.363  95.760 110.472  1.00  0.00     0.026 C 
ATOM      6  C   UNL     1      99.079  93.361 109.733  1.00  0.00     0.026 C 
ATOM      7  C   UNL     1      99.635  95.255 111.887  1.00  0.00     0.121 C 
ATOM      8  C   UNL     1      99.374  92.919 111.166  1.00  0.00     0.121 C 
ATOM      9  C   UNL     1     101.453  93.508 112.377  1.00  0.00     0.317 C 
ATOM     10  H   UNL     1     101.882  95.470 113.007  1.00  0.00     0.165 HD
ENDROOT
BRANCH   3  11
ATOM     11  C   UNL     1     103.486  94.253 113.590  1.00  0.00     0.153 C 
BRANCH  11  12
ATOM     12  C   UNL     1     104.566  95.084 112.961  1.00  0.00    -0.029 A 
ATOM     13  C   UNL     1     105.050  96.203 113.629  1.00  0.00     0.005 A 
ATOM     14  C   UNL     1     105.073  94.726 111.718  1.00  0.00     0.005 A 
ATOM     15  C   UNL     1     106.054  96.975 113.045  1.00  0.00     0.000 A 
ATOM     16  C   UNL     1     106.078  95.497 111.133  1.00  0.00     0.000 A 
ATOM     17  C   UNL     1     106.569  96.622 111.797  1.00  0.00     0.000 A 
ENDBRANCH  11  12
ENDBRANCH   3  11
BRANCH   4  18
ATOM     18  C   UNL     1      98.271  95.242 108.257  1.00  0.00     0.088 C 
BRANCH  18  19
ATOM     19  N   UNL     1      98.787  94.253 107.310  1.00  0.00    -0.298 NA
ATOM     20  C   UNL     1      97.817  94.005 106.236  1.00  0.00     0.089 C 
ATOM     21  C   UNL     1     100.070  94.704 106.745  1.00  0.00     0.120 C 
ATOM     22  C   UNL     1      98.282  92.824 105.378  1.00  0.00     0.051 C 
ATOM     23  C   UNL     1     100.595  93.799 105.654  1.00  0.00    -0.031 A 
ATOM     24  C   UNL     1      99.728  92.930 104.969  1.00  0.00    -0.042 A 
ATOM     25  C   UNL     1     101.943  93.869 105.276  1.00  0.00     0.005 A 
ATOM     26  C   UNL     1     100.229  92.117 103.943  1.00  0.00     0.004 A 
ATOM     27  C   UNL     1     102.430  93.063 104.247  1.00  0.00     0.000 A 
ATOM     28  C   UNL     1     101.574  92.186 103.583  1.00  0.00     0.000 A 
ENDBRANCH  18  19
ENDBRANCH   4  18
TORSDOF 4
ENDMDL
MODEL 8
REMARK VINA RESULT:      -6.6      8.890     13.229
REMARK SMILES O=C(NCc1ccccc1)N1CCC(CN2CCc3ccccc3C2)CC1
REMARK SMILES IDX 1 1 11 2 3 3 14 4 13 5 26 6 12 7 27 8 2 9 4 11 5 12 6 13
REMARK SMILES IDX 10 14 7 15 9 16 8 17 15 18 16 19 17 20 25 21 18 22 24 23
REMARK SMILES IDX 19 24 23 25 20 26 22 27 21 28
REMARK H PARENT 3 10
ROOT
ATOM      1  O   UNL     1     102.127 101.531 117.437  1.00  0.00    -0.249 OA
ATOM      2  N   UNL     1     101.271  99.436 116.931  1.00  0.00    -0.325 N 
ATOM      3  N   UNL     1      99.914 101.372 116.859  1.00  0.00    -0.334 N 
ATOM      4  C   UNL     1     101.912  97.041 115.431  1.00  0.00     0.006 C 
ATOM      5  C   UNL     1     100.567  97.768 115.268  1.00  0.00     0.026 C 
ATOM      6  C   UNL     1     102.999  98.020 115.905  1.00  0.00     0.026 C 
ATOM      7  C   UNL     1     100.192  98.517 116.545  1.00  0.00     0.121 C 
ATOM      8  C   UNL     1     102.559  98.776 117.158  1.00  0.00     0.121 C 
ATOM      9  C   UNL     1     101.169 100.827 117.100  1.00  0.00     0.317 C 
ATOM     10  H   UNL     1      99.144 100.808 116.529  1.00  0.00     0.165 HD
ENDROOT
BRANCH   3  11
ATOM     11  C   UNL     1      99.654 102.789 116.986  1.00  0.00     0.153 C 
BRANCH  11  12
ATOM     12  C   UNL     1      98.836 103.315 115.843  1.00  0.00    -0.029 A 
ATOM     13  C   UNL     1      98.079 102.436 115.077  1.00  0.00     0.005 A 
ATOM     14  C   UNL     1      98.844 104.676 115.561  1.00  0.00     0.005 A 
ATOM     15  C   UNL     1      97.320 102.924 114.014  1.00  0.00     0.000 A 
ATOM     16  C   UNL     1      98.084 105.165 114.498  1.00  0.00     0.000 A 
ATOM     17  C   UNL     1      97.322 104.289 113.725  1.00  0.00     0.000 A 
ENDBRANCH  11  12
ENDBRANCH   3  11
BRANCH   4  18
ATOM     18  C   UNL     1     102.325  96.362 114.127  1.00  0.00     0.088 C 
BRANCH  18  19
ATOM     19  N   UNL     1     103.699  95.869 114.208  1.00  0.00    -0.298 NA
ATOM     20  C   UNL     1     103.818  94.821 115.229  1.00  0.00     0.089 C 
ATOM     21  C   UNL     1     104.138  95.357 112.898  1.00  0.00     0.120 C 
ATOM     22  C   UNL     1     105.293  94.469 115.444  1.00  0.00     0.051 C 
ATOM     23  C   UNL     1     105.500  94.703 112.937  1.00  0.00    -0.031 A 
ATOM     24  C   UNL     1     106.034  94.238 114.152  1.00  0.00    -0.042 A 
ATOM     25  C   UNL     1     106.213  94.501 111.748  1.00  0.00     0.005 A 
ATOM     26  C   UNL     1     107.287  93.611 114.164  1.00  0.00     0.004 A 
ATOM     27  C   UNL     1     107.455  93.868 111.769  1.00  0.00     0.000 A 
ATOM     28  C   UNL     1     107.993  93.425 112.975  1.00  0.00     0.000 A 
ENDBRANCH  18  19
ENDBRANCH   4  18
TORSDOF 4
ENDMDL
MODEL 9
REMARK VINA RESULT:      -6.6     11.710     14.969
REMARK SMILES O=C(NCc1ccccc1)N1CCC(CN2CCc3ccccc3C2)CC1
REMARK SMILES IDX 1 1 11 2 3 3 14 4 13 5 26 6 12 7 27 8 2 9 4 11 5 12 6 13
REMARK SMILES IDX 10 14 7 15 9 16 8 17 15 18 16 19 17 20 25 21 18 22 24 23
REMARK SMILES IDX 19 24 23 25 20 26 22 27 21 28
REMARK H PARENT 3 10
ROOT
ATOM      1  O   UNL     1     104.002  95.040 115.516  1.00  0.00    -0.249 OA
ATOM      2  N   UNL     1     102.122  96.079 114.642  1.00  0.00    -0.325 N 
ATOM      3  N   UNL     1     104.302  96.717 113.983  1.00  0.00    -0.334 N 
ATOM      4  C   UNL     1      99.501  95.467 113.569  1.00  0.00     0.006 C 
ATOM      5  C   UNL     1     100.499  96.362 112.817  1.00  0.00     0.026 C 
ATOM      6  C   UNL     1     100.244  94.499 114.505  1.00  0.00     0.026 C 
ATOM      7  C   UNL     1     101.444  97.065 113.790  1.00  0.00     0.121 C 
ATOM      8  C   UNL     1     101.208  95.245 115.427  1.00  0.00     0.121 C 
ATOM      9  C   UNL     1     103.508  95.889 114.766  1.00  0.00     0.317 C 
ATOM     10  H   UNL     1     103.902  97.373 113.327  1.00  0.00     0.165 HD
ENDROOT
BRANCH   3  11
ATOM     11  C   UNL     1     105.746  96.637 113.998  1.00  0.00     0.153 C 
BRANCH  11  12
ATOM     12  C   UNL     1     106.266  95.676 112.969  1.00  0.00    -0.029 A 
ATOM     13  C   UNL     1     106.869  94.492 113.376  1.00  0.00     0.005 A 
ATOM     14  C   UNL     1     106.138  95.980 111.618  1.00  0.00     0.005 A 
ATOM     15  C   UNL     1     107.352  93.599 112.420  1.00  0.00     0.000 A 
ATOM     16  C   UNL     1     106.621  95.087 110.661  1.00  0.00     0.000 A 
ATOM     17  C   UNL     1     107.227  93.896 111.062  1.00  0.00     0.000 A 
ENDBRANCH  11  12
ENDBRANCH   3  11
BRANCH   4  18
ATOM     18  C   UNL     1      98.612  94.702 112.591  1.00  0.00     0.088 C 
BRANCH  18  19
ATOM     19  N   UNL     1      99.359  94.326 111.392  1.00  0.00    -0.298 NA
ATOM     20  C   UNL     1      99.358  92.869 111.213  1.00  0.00     0.089 C 
ATOM     21  C   UNL     1      98.790  94.986 110.205  1.00  0.00     0.120 C 
ATOM     22  C   UNL     1     100.314  92.483 110.079  1.00  0.00     0.051 C 
ATOM     23  C   UNL     1      99.423  94.536 108.908  1.00  0.00    -0.031 A 
ATOM     24  C   UNL     1     100.116  93.315 108.839  1.00  0.00    -0.042 A 
ATOM     25  C   UNL     1      99.269  95.309 107.749  1.00  0.00     0.005 A 
ATOM     26  C   UNL     1     100.675  92.902 107.621  1.00  0.00     0.004 A 
ATOM     27  C   UNL     1      99.820  94.885 106.540  1.00  0.00     0.000 A 
ATOM     28  C   UNL     1     100.524  93.685 106.476  1.00  0.00     0.000 A 
ENDBRANCH  18  19
ENDBRANCH   4  18
TORSDOF 4
ENDMDL
MODEL 10
REMARK VINA RESULT:      -6.5     11.401     15.272
REMARK SMILES O=C(NCc1ccccc1)N1CCC(CN2CCc3ccccc3C2)CC1
REMARK SMILES IDX 1 1 11 2 3 3 14 4 13 5 26 6 12 7 27 8 2 9 4 11 5 12 6 13
REMARK SMILES IDX 10 14 7 15 9 16 8 17 15 18 16 19 17 20 25 21 18 22 24 23
REMARK SMILES IDX 19 24 23 25 20 26 22 27 21 28
REMARK H PARENT 3 10
ROOT
ATOM      1  O   UNL     1     103.261  96.698 115.258  1.00  0.00    -0.249 OA
ATOM      2  N   UNL     1     102.021  96.956 113.316  1.00  0.00    -0.325 N 
ATOM      3  N   UNL     1     104.386  96.966 113.279  1.00  0.00    -0.334 N 
ATOM      4  C   UNL     1      99.721  95.847 111.946  1.00  0.00     0.006 C 
ATOM      5  C   UNL     1     101.081  96.016 111.249  1.00  0.00     0.026 C 
ATOM      6  C   UNL     1      99.909  95.706 113.465  1.00  0.00     0.026 C 
ATOM      7  C   UNL     1     101.875  97.163 111.870  1.00  0.00     0.121 C 
ATOM      8  C   UNL     1     100.747  96.853 114.032  1.00  0.00     0.121 C 
ATOM      9  C   UNL     1     103.224  96.864 114.034  1.00  0.00     0.317 C 
ATOM     10  H   UNL     1     104.360  97.045 112.272  1.00  0.00     0.165 HD
ENDROOT
BRANCH   3  11
ATOM     11  C   UNL     1     105.701  96.885 113.875  1.00  0.00     0.153 C 
BRANCH  11  12
ATOM     12  C   UNL     1     106.303  95.519 113.722  1.00  0.00    -0.029 A 
ATOM     13  C   UNL     1     106.785  95.114 112.482  1.00  0.00     0.005 A 
ATOM     14  C   UNL     1     106.375  94.673 114.822  1.00  0.00     0.005 A 
ATOM     15  C   UNL     1     107.345  93.845 112.340  1.00  0.00     0.000 A 
ATOM     16  C   UNL     1     106.936  93.403 114.681  1.00  0.00     0.000 A 
ATOM     17  C   UNL     1     107.421  92.989 113.440  1.00  0.00     0.000 A 
ENDBRANCH  11  12
ENDBRANCH   3  11
BRANCH   4  18
ATOM     18  C   UNL     1      98.964  94.648 111.379  1.00  0.00     0.088 C 
BRANCH  18  19
ATOM     19  N   UNL     1      99.566  94.197 110.125  1.00  0.00    -0.298 NA
ATOM     20  C   UNL     1      99.518  92.733 110.021  1.00  0.00     0.089 C 
ATOM     21  C   UNL     1      98.880  94.813 108.976  1.00  0.00     0.120 C 
ATOM     22  C   UNL     1     100.334  92.271 108.809  1.00  0.00     0.051 C 
ATOM     23  C   UNL     1      99.356  94.286 107.641  1.00  0.00    -0.031 A 
ATOM     24  C   UNL     1     100.014  93.047 107.558  1.00  0.00    -0.042 A 
ATOM     25  C   UNL     1      99.087  95.006 106.470  1.00  0.00     0.005 A 
ATOM     26  C   UNL     1     100.425  92.563 106.308  1.00  0.00     0.004 A 
ATOM     27  C   UNL     1      99.491  94.512 105.230  1.00  0.00     0.000 A 
ATOM     28  C   UNL     1     100.162  93.293 105.149  1.00  0.00     0.000 A 
ENDBRANCH  18  19
ENDBRANCH   4  18
TORSDOF 4
ENDMDL
MODEL 11
REMARK VINA RESULT:      -6.4      9.255     13.346
REMARK SMILES O=C(NCc1ccccc1)N1CCC(CN2CCc3ccccc3C2)CC1
REMARK SMILES IDX 1 1 11 2 3 3 14 4 13 5 26 6 12 7 27 8 2 9 4 11 5 12 6 13
REMARK SMILES IDX 10 14 7 15 9 16 8 17 15 18 16 19 17 20 25 21 18 22 24 23
REMARK SMILES IDX 19 24 23 25 20 26 22 27 21 28
REMARK H PARENT 3 10
ROOT
ATOM      1  O   UNL     1     100.263  99.639 117.184  1.00  0.00    -0.249 OA
ATOM      2  N   UNL     1     100.557  97.978 115.592  1.00  0.00    -0.325 N 
ATOM      3  N   UNL     1      98.552  99.226 115.715  1.00  0.00    -0.334 N 
ATOM      4  C   UNL     1     102.518  96.990 113.702  1.00  0.00     0.006 C 
ATOM      5  C   UNL     1     101.073  97.308 113.284  1.00  0.00     0.026 C 
ATOM      6  C   UNL     1     102.919  97.823 114.930  1.00  0.00     0.026 C 
ATOM      7  C   UNL     1     100.115  97.149 114.463  1.00  0.00     0.121 C 
ATOM      8  C   UNL     1     101.908  97.665 116.065  1.00  0.00     0.121 C 
ATOM      9  C   UNL     1      99.821  98.990 116.229  1.00  0.00     0.317 C 
ATOM     10  H   UNL     1      98.209  98.738 114.900  1.00  0.00     0.165 HD
ENDROOT
BRANCH   3  11
ATOM     11  C   UNL     1      97.677 100.240 116.262  1.00  0.00     0.153 C 
BRANCH  11  12
ATOM     12  C   UNL     1      97.844 101.560 115.568  1.00  0.00    -0.029 A 
ATOM     13  C   UNL     1      97.247 101.767 114.330  1.00  0.00     0.005 A 
ATOM     14  C   UNL     1      98.593 102.563 116.170  1.00  0.00     0.005 A 
ATOM     15  C   UNL     1      97.402 102.993 113.685  1.00  0.00     0.000 A 
ATOM     16  C   UNL     1      98.749 103.791 115.526  1.00  0.00     0.000 A 
ATOM     17  C   UNL     1      98.152 104.006 114.283  1.00  0.00     0.000 A 
ENDBRANCH  11  12
ENDBRANCH   3  11
BRANCH   4  18
ATOM     18  C   UNL     1     103.484  97.229 112.544  1.00  0.00     0.088 C 
BRANCH  18  19
ATOM     19  N   UNL     1     104.453  96.138 112.439  1.00  0.00    -0.298 NA
ATOM     20  C   UNL     1     105.469  96.440 111.423  1.00  0.00     0.089 C 
ATOM     21  C   UNL     1     105.093  95.894 113.743  1.00  0.00     0.120 C 
ATOM     22  C   UNL     1     106.345  95.207 111.182  1.00  0.00     0.051 C 
ATOM     23  C   UNL     1     106.207  94.874 113.681  1.00  0.00    -0.031 A 
ATOM     24  C   UNL     1     106.836  94.578 112.460  1.00  0.00    -0.042 A 
ATOM     25  C   UNL     1     106.661  94.262 114.858  1.00  0.00     0.005 A 
ATOM     26  C   UNL     1     107.885  93.649 112.427  1.00  0.00     0.004 A 
ATOM     27  C   UNL     1     107.711  93.346 114.817  1.00  0.00     0.000 A 
ATOM     28  C   UNL     1     108.321  93.037 113.603  1.00  0.00     0.000 A 
ENDBRANCH  18  19
ENDBRANCH   4  18
TORSDOF 4
ENDMDL
MODEL 12
REMARK VINA RESULT:      -6.3     12.125     16.065
REMARK SMILES O=C(NCc1ccccc1)N1CCC(CN2CCc3ccccc3C2)CC1
REMARK SMILES IDX 1 1 11 2 3 3 14 4 13 5 26 6 12 7 27 8 2 9 4 11 5 12 6 13
REMARK SMILES IDX 10 14 7 15 9 16 8 17 15 18 16 19 17 20 25 21 18 22 24 23
REMARK SMILES IDX 19 24 23 25 20 26 22 27 21 28
REMARK H PARENT 3 10
ROOT
ATOM      1  O   UNL     1     102.595  92.528 112.288  1.00  0.00    -0.249 OA
ATOM      2  N   UNL     1     101.248  94.373 111.895  1.00  0.00    -0.325 N 
ATOM      3  N   UNL     1     103.589  94.589 112.151  1.00  0.00    -0.334 N 
ATOM      4  C   UNL     1      99.045  95.242 110.224  1.00  0.00     0.006 C 
ATOM      5  C   UNL     1     100.342  96.059 110.352  1.00  0.00     0.026 C 
ATOM      6  C   UNL     1      99.316  93.755 110.506  1.00  0.00     0.026 C 
ATOM      7  C   UNL     1     101.014  95.810 111.700  1.00  0.00     0.121 C 
ATOM      8  C   UNL     1     100.029  93.563 111.845  1.00  0.00     0.121 C 
ATOM      9  C   UNL     1     102.484  93.747 112.124  1.00  0.00     0.317 C 
ATOM     10  H   UNL     1     103.510  95.577 111.961  1.00  0.00     0.165 HD
ENDROOT
BRANCH   3  11
ATOM     11  C   UNL     1     104.929  94.091 112.371  1.00  0.00     0.153 C 
BRANCH  11  12
ATOM     12  C   UNL     1     105.377  94.291 113.790  1.00  0.00    -0.029 A 
ATOM     13  C   UNL     1     104.673  95.159 114.617  1.00  0.00     0.005 A 
ATOM     14  C   UNL     1     106.490  93.607 114.262  1.00  0.00     0.005 A 
ATOM     15  C   UNL     1     105.089  95.345 115.935  1.00  0.00     0.000 A 
ATOM     16  C   UNL     1     106.907  93.793 115.581  1.00  0.00     0.000 A 
ATOM     17  C   UNL     1     106.205  94.662 116.418  1.00  0.00     0.000 A 
ENDBRANCH  11  12
ENDBRANCH   3  11
BRANCH   4  18
ATOM     18  C   UNL     1      98.419  95.428 108.845  1.00  0.00     0.088 C 
BRANCH  18  19
ATOM     19  N   UNL     1      98.840  94.366 107.933  1.00  0.00    -0.298 NA
ATOM     20  C   UNL     1      97.717  93.918 107.100  1.00  0.00     0.089 C 
ATOM     21  C   UNL     1      99.951  94.829 107.084  1.00  0.00     0.120 C 
ATOM     22  C   UNL     1      98.123  92.672 106.306  1.00  0.00     0.051 C 
ATOM     23  C   UNL     1     100.348  93.832 106.020  1.00  0.00    -0.031 A 
ATOM     24  C   UNL     1      99.454  92.825 105.617  1.00  0.00    -0.042 A 
ATOM     25  C   UNL     1     101.593  93.945 105.385  1.00  0.00     0.005 A 
ATOM     26  C   UNL     1      99.831  91.925 104.610  1.00  0.00     0.004 A 
ATOM     27  C   UNL     1     101.954  93.051 104.377  1.00  0.00     0.000 A 
ATOM     28  C   UNL     1     101.076  92.040 103.992  1.00  0.00     0.000 A 
ENDBRANCH  18  19
ENDBRANCH   4  18
TORSDOF 4
ENDMDL
MODEL 13
REMARK VINA RESULT:      -6.3      9.550     13.811
REMARK SMILES O=C(NCc1ccccc1)N1CCC(CN2CCc3ccccc3C2)CC1
REMARK SMILES IDX 1 1 11 2 3 3 14 4 13 5 26 6 12 7 27 8 2 9 4 11 5 12 6 13
REMARK SMILES IDX 10 14 7 15 9 16 8 17 15 18 16 19 17 20 25 21 18 22 24 23
REMARK SMILES IDX 19 24 23 25 20 26 22 27 21 28
REMARK H PARENT 3 10
ROOT
ATOM      1  O   UNL     1      97.626  97.984 115.707  1.00  0.00    -0.249 OA
ATOM      2  N   UNL     1      99.795  97.509 115.037  1.00  0.00    -0.325 N 
ATOM      3  N   UNL     1      99.208  99.633 115.895  1.00  0.00    -0.334 N 
ATOM      4  C   UNL     1     101.816  95.443 115.244  1.00  0.00     0.006 C 
ATOM      5  C   UNL     1     102.113  96.910 115.595  1.00  0.00     0.026 C 
ATOM      6  C   UNL     1     100.320  95.139 115.424  1.00  0.00     0.026 C 
ATOM      7  C   UNL     1     101.204  97.855 114.811  1.00  0.00     0.121 C 
ATOM      8  C   UNL     1      99.453  96.136 114.657  1.00  0.00     0.121 C 
ATOM      9  C   UNL     1      98.797  98.350 115.555  1.00  0.00     0.317 C 
ATOM     10  H   UNL     1     100.174  99.918 115.826  1.00  0.00     0.165 HD
ENDROOT
BRANCH   3  11
ATOM     11  C   UNL     1      98.296 100.612 116.445  1.00  0.00     0.153 C 
BRANCH  11  12
ATOM     12  C   UNL     1      98.268 101.873 115.631  1.00  0.00    -0.029 A 
ATOM     13  C   UNL     1      99.027 102.967 116.030  1.00  0.00     0.005 A 
ATOM     14  C   UNL     1      97.483 101.934 114.486  1.00  0.00     0.005 A 
ATOM     15  C   UNL     1      99.002 104.138 115.274  1.00  0.00     0.000 A 
ATOM     16  C   UNL     1      97.457 103.106 113.728  1.00  0.00     0.000 A 
ATOM     17  C   UNL     1      98.217 104.208 114.123  1.00  0.00     0.000 A 
ENDBRANCH  11  12
ENDBRANCH   3  11
BRANCH   4  18
ATOM     18  C   UNL     1     102.668  94.499 116.090  1.00  0.00     0.088 C 
BRANCH  18  19
ATOM     19  N   UNL     1     104.044  94.454 115.596  1.00  0.00    -0.298 NA
ATOM     20  C   UNL     1     104.841  93.488 116.362  1.00  0.00     0.089 C 
ATOM     21  C   UNL     1     104.064  94.109 114.164  1.00  0.00     0.120 C 
ATOM     22  C   UNL     1     106.318  93.608 115.972  1.00  0.00     0.051 C 
ATOM     23  C   UNL     1     105.458  93.907 113.616  1.00  0.00    -0.031 A 
ATOM     24  C   UNL     1     106.530  93.623 114.480  1.00  0.00    -0.042 A 
ATOM     25  C   UNL     1     105.677  93.942 112.232  1.00  0.00     0.005 A 
ATOM     26  C   UNL     1     107.811  93.414 113.951  1.00  0.00     0.004 A 
ATOM     27  C   UNL     1     106.954  93.722 111.715  1.00  0.00     0.000 A 
ATOM     28  C   UNL     1     108.020  93.461 112.573  1.00  0.00     0.000 A 
ENDBRANCH  18  19
ENDBRANCH   4  18
TORSDOF 4
ENDMDL
MODEL 14
REMARK VINA RESULT:      -6.3      9.104     13.316
REMARK SMILES O=C(NCc1ccccc1)N1CCC(CN2CCc3ccccc3C2)CC1
REMARK SMILES IDX 1 1 11 2 3 3 14 4 13 5 26 6 12 7 27 8 2 9 4 11 5 12 6 13
REMARK SMILES IDX 10 14 7 15 9 16 8 17 15 18 16 19 17 20 25 21 18 22 24 23
REMARK SMILES IDX 19 24 23 25 20 26 22 27 21 28
REMARK H PARENT 3 10
ROOT
ATOM      1  O   UNL     1     103.538  94.661 117.053  1.00  0.00    -0.249 OA
ATOM      2  N   UNL     1     102.712  96.586 116.058  1.00  0.00    -0.325 N 
ATOM      3  N   UNL     1     103.454  94.750 114.764  1.00  0.00    -0.334 N 
ATOM      4  C   UNL     1     100.537  98.487 116.287  1.00  0.00     0.006 C 
ATOM      5  C   UNL     1     100.877  97.795 114.957  1.00  0.00     0.026 C 
ATOM      6  C   UNL     1     100.991  97.622 117.475  1.00  0.00     0.026 C 
ATOM      7  C   UNL     1     102.355  97.415 114.900  1.00  0.00     0.121 C 
ATOM      8  C   UNL     1     102.464  97.233 117.349  1.00  0.00     0.121 C 
ATOM      9  C   UNL     1     103.255  95.291 116.029  1.00  0.00     0.317 C 
ATOM     10  H   UNL     1     103.171  95.239 113.927  1.00  0.00     0.165 HD
ENDROOT
BRANCH   3  11
ATOM     11  C   UNL     1     104.000  93.425 114.572  1.00  0.00     0.153 C 
BRANCH  11  12
ATOM     12  C   UNL     1     105.333  93.462 113.883  1.00  0.00    -0.029 A 
ATOM     13  C   UNL     1     105.389  93.557 112.497  1.00  0.00     0.005 A 
ATOM     14  C   UNL     1     106.499  93.401 114.637  1.00  0.00     0.005 A 
ATOM     15  C   UNL     1     106.627  93.591 111.857  1.00  0.00     0.000 A 
ATOM     16  C   UNL     1     107.738  93.436 113.997  1.00  0.00     0.000 A 
ATOM     17  C   UNL     1     107.802  93.531 112.607  1.00  0.00     0.000 A 
ENDBRANCH  11  12
ENDBRANCH   3  11
BRANCH   4  18
ATOM     18  C   UNL     1      99.044  98.791 116.376  1.00  0.00     0.088 C 
BRANCH  18  19
ATOM     19  N   UNL     1      98.697  99.948 115.552  1.00  0.00    -0.298 NA
ATOM     20  C   UNL     1      97.275  99.919 115.186  1.00  0.00     0.089 C 
ATOM     21  C   UNL     1      99.015 101.198 116.262  1.00  0.00     0.120 C 
ATOM     22  C   UNL     1      96.980 101.016 114.157  1.00  0.00     0.051 C 
ATOM     23  C   UNL     1      98.555 102.437 115.528  1.00  0.00    -0.031 A 
ATOM     24  C   UNL     1      97.548 102.354 114.551  1.00  0.00    -0.042 A 
ATOM     25  C   UNL     1      99.089 103.688 115.866  1.00  0.00     0.005 A 
ATOM     26  C   UNL     1      97.117 103.518 113.899  1.00  0.00     0.004 A 
ATOM     27  C   UNL     1      98.646 104.842 115.219  1.00  0.00     0.000 A 
ATOM     28  C   UNL     1      97.663 104.757 114.235  1.00  0.00     0.000 A 
ENDBRANCH  18  19
ENDBRANCH   4  18
TORSDOF 4
ENDMDL
MODEL 15
REMARK VINA RESULT:      -6.3     12.455     13.812
REMARK SMILES O=C(NCc1ccccc1)N1CCC(CN2CCc3ccccc3C2)CC1
REMARK SMILES IDX 1 1 11 2 3 3 14 4 13 5 26 6 12 7 27 8 2 9 4 11 5 12 6 13
REMARK SMILES IDX 10 14 7 15 9 16 8 17 15 18 16 19 17 20 25 21 18 22 24 23
REMARK SMILES IDX 19 24 23 25 20 26 22 27 21 28
REMARK H PARENT 3 10
ROOT
ATOM      1  O   UNL     1      98.246  95.683 110.817  1.00  0.00    -0.249 OA
ATOM      2  N   UNL     1      98.948  93.623 111.615  1.00  0.00    -0.325 N 
ATOM      3  N   UNL     1      98.616  94.001 109.304  1.00  0.00    -0.334 N 
ATOM      4  C   UNL     1     100.820  92.450 113.490  1.00  0.00     0.006 C 
ATOM      5  C   UNL     1     100.746  91.997 112.023  1.00  0.00     0.026 C 
ATOM      6  C   UNL     1     100.326  93.900 113.632  1.00  0.00     0.026 C 
ATOM      7  C   UNL     1      99.347  92.219 111.452  1.00  0.00     0.121 C 
ATOM      8  C   UNL     1      98.943  94.080 113.007  1.00  0.00     0.121 C 
ATOM      9  C   UNL     1      98.579  94.515 110.595  1.00  0.00     0.317 C 
ATOM     10  H   UNL     1      98.943  93.065 109.113  1.00  0.00     0.165 HD
ENDROOT
BRANCH   3  11
ATOM     11  C   UNL     1      98.269  94.799 108.149  1.00  0.00     0.153 C 
BRANCH  11  12
ATOM     12  C   UNL     1      99.092  94.435 106.947  1.00  0.00    -0.029 A 
ATOM     13  C   UNL     1      98.565  94.616 105.673  1.00  0.00     0.005 A 
ATOM     14  C   UNL     1     100.371  93.922 107.120  1.00  0.00     0.005 A 
ATOM     15  C   UNL     1      99.329  94.278 104.557  1.00  0.00     0.000 A 
ATOM     16  C   UNL     1     101.137  93.584 106.003  1.00  0.00     0.000 A 
ATOM     17  C   UNL     1     100.615  93.762 104.721  1.00  0.00     0.000 A 
ENDBRANCH  11  12
ENDBRANCH   3  11
BRANCH   4  18
ATOM     18  C   UNL     1     102.239  92.305 114.034  1.00  0.00     0.088 C 
BRANCH  18  19
ATOM     19  N   UNL     1     102.999  93.540 113.847  1.00  0.00    -0.298 NA
ATOM     20  C   UNL     1     103.732  93.892 115.069  1.00  0.00     0.089 C 
ATOM     21  C   UNL     1     103.931  93.403 112.715  1.00  0.00     0.120 C 
ATOM     22  C   UNL     1     104.348  95.287 114.924  1.00  0.00     0.051 C 
ATOM     23  C   UNL     1     104.850  94.592 112.548  1.00  0.00    -0.031 A 
ATOM     24  C   UNL     1     105.083  95.469 113.621  1.00  0.00    -0.042 A 
ATOM     25  C   UNL     1     105.524  94.790 111.335  1.00  0.00     0.005 A 
ATOM     26  C   UNL     1     105.958  96.552 113.455  1.00  0.00     0.004 A 
ATOM     27  C   UNL     1     106.400  95.864 111.183  1.00  0.00     0.000 A 
ATOM     28  C   UNL     1     106.615  96.746 112.240  1.00  0.00     0.000 A 
ENDBRANCH  18  19
ENDBRANCH   4  18
TORSDOF 4
ENDMDL
