MODEL 1
REMARK VINA RESULT:      -8.5      0.000      0.000
REMARK SMILES Nc1ncnc2nc(-c3cccc(N4CCC5(CC4)OCCO5)n3)cc(-c3ccc(F)cc3)c12
REMARK SMILES IDX 7 1 5 2 3 3 8 4 25 5 26 6 34 7 6 8 2 9 4 10 27 11 30 12
REMARK SMILES IDX 29 13 32 14 28 15 33 16 31 17 9 18 24 19 10 20 13 21 11 22
REMARK SMILES IDX 12 23 14 24 15 25 19 26 16 27 18 28 17 29 20 30 23 31 21 32
REMARK SMILES IDX 22 33 1 34
REMARK H PARENT 1 35 1 36
ROOT
ATOM      1  N   UNL     1     119.733  98.860 120.271  1.00  0.00    -0.226 NA
ATOM      2  N   UNL     1     121.631  97.582 120.623  1.00  0.00    -0.216 NA
ATOM      3  N   UNL     1     121.489  95.298 121.374  1.00  0.00    -0.219 NA
ATOM      4  C   UNL     1     118.382  98.966 120.283  1.00  0.00     0.092 A 
ATOM      5  C   UNL     1     117.528  97.947 120.646  1.00  0.00     0.040 A 
ATOM      6  C   UNL     1     118.104  96.745 121.019  1.00  0.00    -0.001 A 
ATOM      7  C   UNL     1     119.500  96.614 121.013  1.00  0.00     0.069 A 
ATOM      8  C   UNL     1     120.299  97.699 120.631  1.00  0.00     0.165 A 
ATOM      9  C   UNL     1     120.153  95.438 121.374  1.00  0.00     0.136 A 
ATOM     10  C   UNL     1     122.158  96.395 120.991  1.00  0.00     0.226 A 
ENDROOT
BRANCH   6  11
ATOM     11  C   UNL     1     117.167  95.699 121.394  1.00  0.00    -0.017 A 
ATOM     12  C   UNL     1     115.365  93.694 122.112  1.00  0.00     0.123 A 
ATOM     13  C   UNL     1     115.932  93.699 120.837  1.00  0.00     0.040 A 
ATOM     14  C   UNL     1     115.699  94.693 123.026  1.00  0.00     0.040 A 
ATOM     15  C   UNL     1     116.834  94.701 120.478  1.00  0.00     0.012 A 
ATOM     16  C   UNL     1     116.599  95.696 122.667  1.00  0.00     0.012 A 
ATOM     17  F   UNL     1     114.501  92.732 122.457  1.00  0.00    -0.207 F 
ENDBRANCH   6  11
BRANCH   4  18
ATOM     18  C   UNL     1     117.874 100.255 119.879  1.00  0.00     0.091 A 
ATOM     19  N   UNL     1     116.539 100.413 120.025  1.00  0.00    -0.229 NA
ATOM     20  C   UNL     1     118.720 101.233 119.384  1.00  0.00     0.031 A 
ATOM     21  C   UNL     1     116.033 101.611 119.656  1.00  0.00     0.129 A 
ATOM     22  C   UNL     1     118.162 102.452 119.015  1.00  0.00     0.006 A 
ATOM     23  C   UNL     1     116.794 102.653 119.151  1.00  0.00     0.047 A 
BRANCH  21  24
ATOM     24  N   UNL     1     114.656 101.829 119.786  1.00  0.00    -0.356 N 
ATOM     25  C   UNL     1     113.973 101.186 120.918  1.00  0.00     0.123 C 
ATOM     26  C   UNL     1     114.075 103.086 119.301  1.00  0.00     0.123 C 
ATOM     27  C   UNL     1     112.487 101.001 120.612  1.00  0.00     0.087 C 
ATOM     28  C   UNL     1     112.587 102.909 118.999  1.00  0.00     0.087 C 
ATOM     29  C   UNL     1     111.825 102.310 120.181  1.00  0.00     0.171 C 
ATOM     30  O   UNL     1     110.470 102.037 119.790  1.00  0.00    -0.347 OA
ATOM     31  O   UNL     1     111.829 103.246 121.272  1.00  0.00    -0.347 OA
ATOM     32  C   UNL     1     109.692 103.034 120.453  1.00  0.00     0.192 C 
ATOM     33  C   UNL     1     110.472 103.299 121.710  1.00  0.00     0.192 C 
ENDBRANCH  21  24
ENDBRANCH   4  18
BRANCH   9  34
ATOM     34  N   UNL     1     119.443  94.287 121.776  1.00  0.00    -0.383 N 
ATOM     35  H   UNL     1     119.197  93.628 121.050  1.00  0.00     0.158 HD
ATOM     36  H   UNL     1     118.667  94.482 122.400  1.00  0.00     0.158 HD
ENDBRANCH   9  34
TORSDOF 4
ENDMDL
MODEL 2
REMARK VINA RESULT:      -8.3      3.530      5.890
REMARK SMILES Nc1ncnc2nc(-c3cccc(N4CCC5(CC4)OCCO5)n3)cc(-c3ccc(F)cc3)c12
REMARK SMILES IDX 7 1 5 2 3 3 8 4 25 5 26 6 34 7 6 8 2 9 4 10 27 11 30 12
REMARK SMILES IDX 29 13 32 14 28 15 33 16 31 17 9 18 24 19 10 20 13 21 11 22
REMARK SMILES IDX 12 23 14 24 15 25 19 26 16 27 18 28 17 29 20 30 23 31 21 32
REMARK SMILES IDX 22 33 1 34
REMARK H PARENT 1 35 1 36
ROOT
ATOM      1  N   UNL     1     116.656  98.524 121.480  1.00  0.00    -0.226 NA
ATOM      2  N   UNL     1     117.249 100.620 120.693  1.00  0.00    -0.216 NA
ATOM      3  N   UNL     1     119.463 101.070 119.858  1.00  0.00    -0.219 NA
ATOM      4  C   UNL     1     116.995  97.239 121.737  1.00  0.00     0.092 A 
ATOM      5  C   UNL     1     118.241  96.702 121.492  1.00  0.00     0.040 A 
ATOM      6  C   UNL     1     119.194  97.545 120.947  1.00  0.00    -0.001 A 
ATOM      7  C   UNL     1     118.862  98.880 120.673  1.00  0.00     0.069 A 
ATOM      8  C   UNL     1     117.572  99.348 120.952  1.00  0.00     0.165 A 
ATOM      9  C   UNL     1     119.765  99.789 120.125  1.00  0.00     0.136 A 
ATOM     10  C   UNL     1     118.203 101.414 120.161  1.00  0.00     0.226 A 
ENDROOT
BRANCH   6  11
ATOM     11  C   UNL     1     120.492  96.939 120.705  1.00  0.00    -0.017 A 
ATOM     12  C   UNL     1     122.983  95.770 120.242  1.00  0.00     0.123 A 
ATOM     13  C   UNL     1     122.092  95.957 119.184  1.00  0.00     0.040 A 
ATOM     14  C   UNL     1     122.627  96.167 121.531  1.00  0.00     0.040 A 
ATOM     15  C   UNL     1     120.847  96.542 119.416  1.00  0.00     0.012 A 
ATOM     16  C   UNL     1     121.381  96.751 121.762  1.00  0.00     0.012 A 
ATOM     17  F   UNL     1     124.178  95.210 120.020  1.00  0.00    -0.207 F 
ENDBRANCH   6  11
BRANCH   4  18
ATOM     18  C   UNL     1     115.937  96.436 122.303  1.00  0.00     0.091 A 
ATOM     19  N   UNL     1     114.796  97.107 122.578  1.00  0.00    -0.229 NA
ATOM     20  C   UNL     1     116.114  95.081 122.531  1.00  0.00     0.031 A 
ATOM     21  C   UNL     1     113.786  96.381 123.108  1.00  0.00     0.129 A 
ATOM     22  C   UNL     1     115.052  94.369 123.077  1.00  0.00     0.006 A 
ATOM     23  C   UNL     1     113.862  95.023 123.373  1.00  0.00     0.047 A 
BRANCH  21  24
ATOM     24  N   UNL     1     112.582  97.027 123.412  1.00  0.00    -0.356 N 
ATOM     25  C   UNL     1     112.365  97.433 124.808  1.00  0.00     0.123 C 
ATOM     26  C   UNL     1     111.919  97.838 122.385  1.00  0.00     0.123 C 
ATOM     27  C   UNL     1     110.871  97.550 125.106  1.00  0.00     0.087 C 
ATOM     28  C   UNL     1     110.424  97.964 122.681  1.00  0.00     0.087 C 
ATOM     29  C   UNL     1     110.157  98.456 124.103  1.00  0.00     0.171 C 
ATOM     30  O   UNL     1     108.745  98.418 124.367  1.00  0.00    -0.347 OA
ATOM     31  O   UNL     1     110.632  99.806 124.236  1.00  0.00    -0.347 OA
ATOM     32  C   UNL     1     108.338  99.786 124.364  1.00  0.00     0.192 C 
ATOM     33  C   UNL     1     109.558 100.510 124.859  1.00  0.00     0.192 C 
ENDBRANCH  21  24
ENDBRANCH   4  18
BRANCH   9  34
ATOM     34  N   UNL     1     121.090  99.420 119.807  1.00  0.00    -0.383 N 
ATOM     35  H   UNL     1     121.238  98.989 118.905  1.00  0.00     0.158 HD
ATOM     36  H   UNL     1     121.568  98.927 120.555  1.00  0.00     0.158 HD
ENDBRANCH   9  34
TORSDOF 4
ENDMDL
MODEL 3
REMARK VINA RESULT:      -8.0      3.600      6.054
REMARK SMILES Nc1ncnc2nc(-c3cccc(N4CCC5(CC4)OCCO5)n3)cc(-c3ccc(F)cc3)c12
REMARK SMILES IDX 7 1 5 2 3 3 8 4 25 5 26 6 34 7 6 8 2 9 4 10 27 11 30 12
REMARK SMILES IDX 29 13 32 14 28 15 33 16 31 17 9 18 24 19 10 20 13 21 11 22
REMARK SMILES IDX 12 23 14 24 15 25 19 26 16 27 18 28 17 29 20 30 23 31 21 32
REMARK SMILES IDX 22 33 1 34
REMARK H PARENT 1 35 1 36
ROOT
ATOM      1  N   UNL     1     118.426  95.298 121.680  1.00  0.00    -0.226 NA
ATOM      2  N   UNL     1     120.718  95.144 121.386  1.00  0.00    -0.216 NA
ATOM      3  N   UNL     1     121.996  96.972 120.476  1.00  0.00    -0.219 NA
ATOM      4  C   UNL     1     117.286  96.021 121.575  1.00  0.00     0.092 A 
ATOM      5  C   UNL     1     117.225  97.308 121.083  1.00  0.00     0.040 A 
ATOM      6  C   UNL     1     118.417  97.882 120.675  1.00  0.00    -0.001 A 
ATOM      7  C   UNL     1     119.609  97.151 120.776  1.00  0.00     0.069 A 
ATOM      8  C   UNL     1     119.585  95.847 121.287  1.00  0.00     0.165 A 
ATOM      9  C   UNL     1     120.846  97.660 120.386  1.00  0.00     0.136 A 
ATOM     10  C   UNL     1     121.861  95.736 120.979  1.00  0.00     0.226 A 
ENDROOT
BRANCH   6  11
ATOM     11  C   UNL     1     118.307  99.238 120.163  1.00  0.00    -0.017 A 
ATOM     12  C   UNL     1     118.092 101.840 119.182  1.00  0.00     0.123 A 
ATOM     13  C   UNL     1     118.490 101.623 120.501  1.00  0.00     0.040 A 
ATOM     14  C   UNL     1     117.800 100.756 118.355  1.00  0.00     0.040 A 
ATOM     15  C   UNL     1     118.598 100.322 120.992  1.00  0.00     0.012 A 
ATOM     16  C   UNL     1     117.907  99.455 118.845  1.00  0.00     0.012 A 
ATOM     17  F   UNL     1     117.989 103.089 118.711  1.00  0.00    -0.207 F 
ENDBRANCH   6  11
BRANCH   4  18
ATOM     18  C   UNL     1     116.095  95.340 122.026  1.00  0.00     0.091 A 
ATOM     19  N   UNL     1     115.088  96.152 122.420  1.00  0.00    -0.229 NA
ATOM     20  C   UNL     1     116.026  93.957 122.038  1.00  0.00     0.031 A 
ATOM     21  C   UNL     1     113.959  95.543 122.846  1.00  0.00     0.129 A 
ATOM     22  C   UNL     1     114.847  93.368 122.483  1.00  0.00     0.006 A 
ATOM     23  C   UNL     1     113.789  94.169 122.896  1.00  0.00     0.047 A 
BRANCH  21  24
ATOM     24  N   UNL     1     112.884  96.337 123.266  1.00  0.00    -0.356 N 
ATOM     25  C   UNL     1     112.833  96.711 124.687  1.00  0.00     0.123 C 
ATOM     26  C   UNL     1     112.268  97.275 122.321  1.00  0.00     0.123 C 
ATOM     27  C   UNL     1     111.398  97.022 125.107  1.00  0.00     0.087 C 
ATOM     28  C   UNL     1     110.833  97.594 122.739  1.00  0.00     0.087 C 
ATOM     29  C   UNL     1     110.746  98.059 124.193  1.00  0.00     0.171 C 
ATOM     30  O   UNL     1     109.367  98.207 124.568  1.00  0.00    -0.347 OA
ATOM     31  O   UNL     1     111.416  99.324 124.328  1.00  0.00    -0.347 OA
ATOM     32  C   UNL     1     109.159  99.617 124.640  1.00  0.00     0.192 C 
ATOM     33  C   UNL     1     110.503 100.143 125.057  1.00  0.00     0.192 C 
ENDBRANCH  21  24
ENDBRANCH   4  18
BRANCH   9  34
ATOM     34  N   UNL     1     120.981  98.962 119.857  1.00  0.00    -0.383 N 
ATOM     35  H   UNL     1     121.613  99.071 119.077  1.00  0.00     0.158 HD
ATOM     36  H   UNL     1     121.110  99.678 120.565  1.00  0.00     0.158 HD
ENDBRANCH   9  34
TORSDOF 4
ENDMDL
MODEL 4
REMARK VINA RESULT:      -8.0      3.480      5.142
REMARK SMILES Nc1ncnc2nc(-c3cccc(N4CCC5(CC4)OCCO5)n3)cc(-c3ccc(F)cc3)c12
REMARK SMILES IDX 7 1 5 2 3 3 8 4 25 5 26 6 34 7 6 8 2 9 4 10 27 11 30 12
REMARK SMILES IDX 29 13 32 14 28 15 33 16 31 17 9 18 24 19 10 20 13 21 11 22
REMARK SMILES IDX 12 23 14 24 15 25 19 26 16 27 18 28 17 29 20 30 23 31 21 32
REMARK SMILES IDX 22 33 1 34
REMARK H PARENT 1 35 1 36
ROOT
ATOM      1  N   UNL     1     116.532  98.888 121.799  1.00  0.00    -0.226 NA
ATOM      2  N   UNL     1     115.456  96.888 122.252  1.00  0.00    -0.216 NA
ATOM      3  N   UNL     1     116.621  94.782 122.155  1.00  0.00    -0.219 NA
ATOM      4  C   UNL     1     117.663  99.549 121.456  1.00  0.00     0.092 A 
ATOM      5  C   UNL     1     118.874  98.938 121.211  1.00  0.00     0.040 A 
ATOM      6  C   UNL     1     118.919  97.560 121.326  1.00  0.00    -0.001 A 
ATOM      7  C   UNL     1     117.758  96.856 121.681  1.00  0.00     0.069 A 
ATOM      8  C   UNL     1     116.566  97.553 121.914  1.00  0.00     0.165 A 
ATOM      9  C   UNL     1     117.724  95.471 121.817  1.00  0.00     0.136 A 
ATOM     10  C   UNL     1     115.536  95.544 122.356  1.00  0.00     0.226 A 
ENDROOT
BRANCH   6  11
ATOM     11  C   UNL     1     120.214  96.958 121.058  1.00  0.00    -0.017 A 
ATOM     12  C   UNL     1     122.702  95.806 120.544  1.00  0.00     0.123 A 
ATOM     13  C   UNL     1     122.344  96.138 121.851  1.00  0.00     0.040 A 
ATOM     14  C   UNL     1     121.815  96.051 119.495  1.00  0.00     0.040 A 
ATOM     15  C   UNL     1     121.100  96.713 122.108  1.00  0.00     0.012 A 
ATOM     16  C   UNL     1     120.572  96.627 119.752  1.00  0.00     0.012 A 
ATOM     17  F   UNL     1     123.895  95.253 120.296  1.00  0.00    -0.207 F 
ENDBRANCH   6  11
BRANCH   4  18
ATOM     18  C   UNL     1     117.519 100.983 121.361  1.00  0.00     0.091 A 
ATOM     19  N   UNL     1     117.217 101.445 120.127  1.00  0.00    -0.229 NA
ATOM     20  C   UNL     1     117.685 101.792 122.472  1.00  0.00     0.031 A 
ATOM     21  C   UNL     1     117.075 102.784 120.006  1.00  0.00     0.129 A 
ATOM     22  C   UNL     1     117.531 103.164 122.308  1.00  0.00     0.006 A 
ATOM     23  C   UNL     1     117.219 103.678 121.055  1.00  0.00     0.047 A 
BRANCH  21  24
ATOM     24  N   UNL     1     116.763 103.317 118.749  1.00  0.00    -0.356 N 
ATOM     25  C   UNL     1     117.012 102.470 117.574  1.00  0.00     0.123 C 
ATOM     26  C   UNL     1     115.676 104.295 118.630  1.00  0.00     0.123 C 
ATOM     27  C   UNL     1     117.205 103.329 116.325  1.00  0.00     0.087 C 
ATOM     28  C   UNL     1     115.861 105.155 117.380  1.00  0.00     0.087 C 
ATOM     29  C   UNL     1     116.050 104.309 116.121  1.00  0.00     0.171 C 
ATOM     30  O   UNL     1     116.359 105.165 115.009  1.00  0.00    -0.347 OA
ATOM     31  O   UNL     1     114.837 103.588 115.847  1.00  0.00    -0.347 OA
ATOM     32  C   UNL     1     115.175 105.167 114.212  1.00  0.00     0.192 C 
ATOM     33  C   UNL     1     114.592 103.805 114.458  1.00  0.00     0.192 C 
ENDBRANCH  21  24
ENDBRANCH   4  18
BRANCH   9  34
ATOM     34  N   UNL     1     118.870  94.674 121.605  1.00  0.00    -0.383 N 
ATOM     35  H   UNL     1     119.685  95.141 121.232  1.00  0.00     0.158 HD
ATOM     36  H   UNL     1     118.675  93.797 121.132  1.00  0.00     0.158 HD
ENDBRANCH   9  34
TORSDOF 4
ENDMDL
MODEL 5
REMARK VINA RESULT:      -7.7      4.653      9.607
REMARK SMILES Nc1ncnc2nc(-c3cccc(N4CCC5(CC4)OCCO5)n3)cc(-c3ccc(F)cc3)c12
REMARK SMILES IDX 7 1 5 2 3 3 8 4 25 5 26 6 34 7 6 8 2 9 4 10 27 11 30 12
REMARK SMILES IDX 29 13 32 14 28 15 33 16 31 17 9 18 24 19 10 20 13 21 11 22
REMARK SMILES IDX 12 23 14 24 15 25 19 26 16 27 18 28 17 29 20 30 23 31 21 32
REMARK SMILES IDX 22 33 1 34
REMARK H PARENT 1 35 1 36
ROOT
ATOM      1  N   UNL     1     112.234  97.044 123.673  1.00  0.00    -0.226 NA
ATOM      2  N   UNL     1     110.446  97.951 124.833  1.00  0.00    -0.216 NA
ATOM      3  N   UNL     1     109.567 100.127 124.289  1.00  0.00    -0.219 NA
ATOM      4  C   UNL     1     113.164  97.157 122.694  1.00  0.00     0.092 A 
ATOM      5  C   UNL     1     113.290  98.252 121.867  1.00  0.00     0.040 A 
ATOM      6  C   UNL     1     112.401  99.295 122.062  1.00  0.00    -0.001 A 
ATOM      7  C   UNL     1     111.430  99.198 123.070  1.00  0.00     0.069 A 
ATOM      8  C   UNL     1     111.369  98.050 123.869  1.00  0.00     0.165 A 
ATOM      9  C   UNL     1     110.502 100.204 123.328  1.00  0.00     0.136 A 
ATOM     10  C   UNL     1     109.595  98.987 124.994  1.00  0.00     0.226 A 
ENDROOT
BRANCH   6  11
ATOM     11  C   UNL     1     112.570 100.429 121.169  1.00  0.00    -0.017 A 
ATOM     12  C   UNL     1     112.898 102.602 119.452  1.00  0.00     0.123 A 
ATOM     13  C   UNL     1     112.085 101.533 119.076  1.00  0.00     0.040 A 
ATOM     14  C   UNL     1     113.546 102.584 120.686  1.00  0.00     0.040 A 
ATOM     15  C   UNL     1     111.921 100.446 119.934  1.00  0.00     0.012 A 
ATOM     16  C   UNL     1     113.383 101.497 121.545  1.00  0.00     0.012 A 
ATOM     17  F   UNL     1     113.055 103.646 118.629  1.00  0.00    -0.207 F 
ENDBRANCH   6  11
BRANCH   4  18
ATOM     18  C   UNL     1     114.045  96.020 122.565  1.00  0.00     0.091 A 
ATOM     19  N   UNL     1     115.351  96.328 122.393  1.00  0.00    -0.229 NA
ATOM     20  C   UNL     1     113.554  94.727 122.619  1.00  0.00     0.031 A 
ATOM     21  C   UNL     1     116.201  95.284 122.270  1.00  0.00     0.129 A 
ATOM     22  C   UNL     1     114.460  93.680 122.488  1.00  0.00     0.006 A 
ATOM     23  C   UNL     1     115.811  93.956 122.311  1.00  0.00     0.047 A 
BRANCH  21  24
ATOM     24  N   UNL     1     117.565  95.546 122.090  1.00  0.00    -0.356 N 
ATOM     25  C   UNL     1     118.363  94.528 121.392  1.00  0.00     0.123 C 
ATOM     26  C   UNL     1     118.022  96.934 121.966  1.00  0.00     0.123 C 
ATOM     27  C   UNL     1     119.836  94.640 121.785  1.00  0.00     0.087 C 
ATOM     28  C   UNL     1     119.496  97.052 122.353  1.00  0.00     0.087 C 
ATOM     29  C   UNL     1     120.374  96.058 121.592  1.00  0.00     0.171 C 
ATOM     30  O   UNL     1     121.717  96.117 122.098  1.00  0.00    -0.347 OA
ATOM     31  O   UNL     1     120.374  96.397 120.195  1.00  0.00    -0.347 OA
ATOM     32  C   UNL     1     122.463  96.775 121.074  1.00  0.00     0.192 C 
ATOM     33  C   UNL     1     121.749  96.373 119.815  1.00  0.00     0.192 C 
ENDBRANCH  21  24
ENDBRANCH   4  18
BRANCH   9  34
ATOM     34  N   UNL     1     110.478 101.402 122.581  1.00  0.00    -0.383 N 
ATOM     35  H   UNL     1     109.664 101.991 122.694  1.00  0.00     0.158 HD
ATOM     36  H   UNL     1     110.738 101.282 121.607  1.00  0.00     0.158 HD
ENDBRANCH   9  34
TORSDOF 4
ENDMDL
MODEL 6
REMARK VINA RESULT:      -7.6     11.039     13.242
REMARK SMILES Nc1ncnc2nc(-c3cccc(N4CCC5(CC4)OCCO5)n3)cc(-c3ccc(F)cc3)c12
REMARK SMILES IDX 7 1 5 2 3 3 8 4 25 5 26 6 34 7 6 8 2 9 4 10 27 11 30 12
REMARK SMILES IDX 29 13 32 14 28 15 33 16 31 17 9 18 24 19 10 20 13 21 11 22
REMARK SMILES IDX 12 23 14 24 15 25 19 26 16 27 18 28 17 29 20 30 23 31 21 32
REMARK SMILES IDX 22 33 1 34
REMARK H PARENT 1 35 1 36
ROOT
ATOM      1  N   UNL     1     103.695  96.413 118.089  1.00  0.00    -0.226 NA
ATOM      2  N   UNL     1     103.830  94.294 119.015  1.00  0.00    -0.216 NA
ATOM      3  N   UNL     1     104.590  92.405 117.730  1.00  0.00    -0.219 NA
ATOM      4  C   UNL     1     103.859  97.228 117.020  1.00  0.00     0.092 A 
ATOM      5  C   UNL     1     104.315  96.809 115.788  1.00  0.00     0.040 A 
ATOM      6  C   UNL     1     104.619  95.465 115.653  1.00  0.00    -0.001 A 
ATOM      7  C   UNL     1     104.457  94.605 116.748  1.00  0.00     0.069 A 
ATOM      8  C   UNL     1     103.988  95.110 117.967  1.00  0.00     0.165 A 
ATOM      9  C   UNL     1     104.741  93.242 116.690  1.00  0.00     0.136 A 
ATOM     10  C   UNL     1     104.138  92.990 118.847  1.00  0.00     0.226 A 
ENDROOT
BRANCH   6  11
ATOM     11  C   UNL     1     105.095  95.067 114.339  1.00  0.00    -0.017 A 
ATOM     12  C   UNL     1     106.008  94.308 111.815  1.00  0.00     0.123 A 
ATOM     13  C   UNL     1     106.921  94.641 112.816  1.00  0.00     0.040 A 
ATOM     14  C   UNL     1     104.639  94.356 112.076  1.00  0.00     0.040 A 
ATOM     15  C   UNL     1     106.464  95.020 114.078  1.00  0.00     0.012 A 
ATOM     16  C   UNL     1     104.182  94.736 113.338  1.00  0.00     0.012 A 
ATOM     17  F   UNL     1     106.446  93.943 110.603  1.00  0.00    -0.207 F 
ENDBRANCH   6  11
BRANCH   4  18
ATOM     18  C   UNL     1     103.517  98.610 117.256  1.00  0.00     0.091 A 
ATOM     19  N   UNL     1     104.462  99.329 117.905  1.00  0.00    -0.229 NA
ATOM     20  C   UNL     1     102.304  99.127 116.834  1.00  0.00     0.031 A 
ATOM     21  C   UNL     1     104.171 100.628 118.139  1.00  0.00     0.129 A 
ATOM     22  C   UNL     1     102.042 100.468 117.093  1.00  0.00     0.006 A 
ATOM     23  C   UNL     1     102.988 101.240 117.757  1.00  0.00     0.047 A 
BRANCH  21  24
ATOM     24  N   UNL     1     105.114 101.418 118.808  1.00  0.00    -0.356 N 
ATOM     25  C   UNL     1     104.717 102.787 119.169  1.00  0.00     0.123 C 
ATOM     26  C   UNL     1     106.107 100.776 119.675  1.00  0.00     0.123 C 
ATOM     27  C   UNL     1     105.948 103.680 119.318  1.00  0.00     0.087 C 
ATOM     28  C   UNL     1     107.339 101.667 119.833  1.00  0.00     0.087 C 
ATOM     29  C   UNL     1     106.974 103.082 120.280  1.00  0.00     0.171 C 
ATOM     30  O   UNL     1     108.151 103.906 120.274  1.00  0.00    -0.347 OA
ATOM     31  O   UNL     1     106.431 103.035 121.611  1.00  0.00    -0.347 OA
ATOM     32  C   UNL     1     108.466 104.102 121.652  1.00  0.00     0.192 C 
ATOM     33  C   UNL     1     107.121 104.062 122.322  1.00  0.00     0.192 C 
ENDBRANCH  21  24
ENDBRANCH   4  18
BRANCH   9  34
ATOM     34  N   UNL     1     105.218  92.632 115.510  1.00  0.00    -0.383 N 
ATOM     35  H   UNL     1     105.127  93.163 114.655  1.00  0.00     0.158 HD
ATOM     36  H   UNL     1     104.922  91.667 115.401  1.00  0.00     0.158 HD
ENDBRANCH   9  34
TORSDOF 4
ENDMDL
MODEL 7
REMARK VINA RESULT:      -7.5     11.296     14.242
REMARK SMILES Nc1ncnc2nc(-c3cccc(N4CCC5(CC4)OCCO5)n3)cc(-c3ccc(F)cc3)c12
REMARK SMILES IDX 7 1 5 2 3 3 8 4 25 5 26 6 34 7 6 8 2 9 4 10 27 11 30 12
REMARK SMILES IDX 29 13 32 14 28 15 33 16 31 17 9 18 24 19 10 20 13 21 11 22
REMARK SMILES IDX 12 23 14 24 15 25 19 26 16 27 18 28 17 29 20 30 23 31 21 32
REMARK SMILES IDX 22 33 1 34
REMARK H PARENT 1 35 1 36
ROOT
ATOM      1  N   UNL     1     102.819  96.699 116.128  1.00  0.00    -0.226 NA
ATOM      2  N   UNL     1     100.854  96.405 114.938  1.00  0.00    -0.216 NA
ATOM      3  N   UNL     1     100.864  95.562 112.682  1.00  0.00    -0.219 NA
ATOM      4  C   UNL     1     104.170  96.617 116.182  1.00  0.00     0.092 A 
ATOM      5  C   UNL     1     104.962  96.170 115.146  1.00  0.00     0.040 A 
ATOM      6  C   UNL     1     104.319  95.785 113.983  1.00  0.00    -0.001 A 
ATOM      7  C   UNL     1     102.921  95.862 113.906  1.00  0.00     0.069 A 
ATOM      8  C   UNL     1     102.188  96.328 115.004  1.00  0.00     0.165 A 
ATOM      9  C   UNL     1     102.202  95.493 112.771  1.00  0.00     0.136 A 
ATOM     10  C   UNL     1     100.261  96.020 113.788  1.00  0.00     0.226 A 
ENDROOT
BRANCH   6  11
ATOM     11  C   UNL     1     105.191  95.321 112.917  1.00  0.00    -0.017 A 
ATOM     12  C   UNL     1     106.870  94.432 110.875  1.00  0.00     0.123 A 
ATOM     13  C   UNL     1     106.412  93.536 111.841  1.00  0.00     0.040 A 
ATOM     14  C   UNL     1     106.489  95.772 110.931  1.00  0.00     0.040 A 
ATOM     15  C   UNL     1     105.572  93.980 112.862  1.00  0.00     0.012 A 
ATOM     16  C   UNL     1     105.650  96.217 111.953  1.00  0.00     0.012 A 
ATOM     17  F   UNL     1     107.675  94.006 109.894  1.00  0.00    -0.207 F 
ENDBRANCH   6  11
BRANCH   4  18
ATOM     18  C   UNL     1     104.751  97.040 117.435  1.00  0.00     0.091 A 
ATOM     19  N   UNL     1     104.835  98.379 117.602  1.00  0.00    -0.229 NA
ATOM     20  C   UNL     1     105.176  96.113 118.372  1.00  0.00     0.031 A 
ATOM     21  C   UNL     1     105.374  98.805 118.766  1.00  0.00     0.129 A 
ATOM     22  C   UNL     1     105.725  96.591 119.557  1.00  0.00     0.006 A 
ATOM     23  C   UNL     1     105.829  97.961 119.766  1.00  0.00     0.047 A 
BRANCH  21  24
ATOM     24  N   UNL     1     105.486 100.183 118.991  1.00  0.00    -0.356 N 
ATOM     25  C   UNL     1     104.351 101.028 118.593  1.00  0.00     0.123 C 
ATOM     26  C   UNL     1     106.301 100.667 120.111  1.00  0.00     0.123 C 
ATOM     27  C   UNL     1     104.816 102.460 118.332  1.00  0.00     0.087 C 
ATOM     28  C   UNL     1     106.764 102.101 119.857  1.00  0.00     0.087 C 
ATOM     29  C   UNL     1     105.601 103.031 119.513  1.00  0.00     0.171 C 
ATOM     30  O   UNL     1     106.111 104.324 119.149  1.00  0.00    -0.347 OA
ATOM     31  O   UNL     1     104.741 103.161 120.657  1.00  0.00    -0.347 OA
ATOM     32  C   UNL     1     105.787 105.167 120.254  1.00  0.00     0.192 C 
ATOM     33  C   UNL     1     104.518 104.565 120.787  1.00  0.00     0.192 C 
ENDBRANCH  21  24
ENDBRANCH   4  18
BRANCH   9  34
ATOM     34  N   UNL     1     102.843  95.011 111.609  1.00  0.00    -0.383 N 
ATOM     35  H   UNL     1     102.917  94.008 111.515  1.00  0.00     0.158 HD
ATOM     36  H   UNL     1     103.715  95.486 111.397  1.00  0.00     0.158 HD
ENDBRANCH   9  34
TORSDOF 4
ENDMDL
MODEL 8
REMARK VINA RESULT:      -7.4      2.430      3.923
REMARK SMILES Nc1ncnc2nc(-c3cccc(N4CCC5(CC4)OCCO5)n3)cc(-c3ccc(F)cc3)c12
REMARK SMILES IDX 7 1 5 2 3 3 8 4 25 5 26 6 34 7 6 8 2 9 4 10 27 11 30 12
REMARK SMILES IDX 29 13 32 14 28 15 33 16 31 17 9 18 24 19 10 20 13 21 11 22
REMARK SMILES IDX 12 23 14 24 15 25 19 26 16 27 18 28 17 29 20 30 23 31 21 32
REMARK SMILES IDX 22 33 1 34
REMARK H PARENT 1 35 1 36
ROOT
ATOM      1  N   UNL     1     116.311  98.247 121.713  1.00  0.00    -0.226 NA
ATOM      2  N   UNL     1     115.538  96.122 122.213  1.00  0.00    -0.216 NA
ATOM      3  N   UNL     1     116.997  94.207 122.159  1.00  0.00    -0.219 NA
ATOM      4  C   UNL     1     117.334  99.058 121.351  1.00  0.00     0.092 A 
ATOM      5  C   UNL     1     118.621  98.624 121.115  1.00  0.00     0.040 A 
ATOM      6  C   UNL     1     118.866  97.269 121.261  1.00  0.00    -0.001 A 
ATOM      7  C   UNL     1     117.821  96.413 121.635  1.00  0.00     0.069 A 
ATOM      8  C   UNL     1     116.540  96.933 121.857  1.00  0.00     0.165 A 
ATOM      9  C   UNL     1     117.988  95.040 121.802  1.00  0.00     0.136 A 
ATOM     10  C   UNL     1     115.813  94.807 122.347  1.00  0.00     0.226 A 
ENDROOT
BRANCH   6  11
ATOM     11  C   UNL     1     120.235  96.856 121.002  1.00  0.00    -0.017 A 
ATOM     12  C   UNL     1     122.861  96.059 120.504  1.00  0.00     0.123 A 
ATOM     13  C   UNL     1     121.951  96.156 119.452  1.00  0.00     0.040 A 
ATOM     14  C   UNL     1     122.458  96.360 121.805  1.00  0.00     0.040 A 
ATOM     15  C   UNL     1     120.638  96.555 119.700  1.00  0.00     0.012 A 
ATOM     16  C   UNL     1     121.144  96.758 122.054  1.00  0.00     0.012 A 
ATOM     17  F   UNL     1     124.122  95.676 120.266  1.00  0.00    -0.207 F 
ENDBRANCH   6  11
BRANCH   4  18
ATOM     18  C   UNL     1     116.984 100.453 121.225  1.00  0.00     0.091 A 
ATOM     19  N   UNL     1     115.671 100.694 121.009  1.00  0.00    -0.229 NA
ATOM     20  C   UNL     1     117.948 101.442 121.325  1.00  0.00     0.031 A 
ATOM     21  C   UNL     1     115.312 101.992 120.887  1.00  0.00     0.129 A 
ATOM     22  C   UNL     1     117.539 102.765 121.194  1.00  0.00     0.006 A 
ATOM     23  C   UNL     1     116.198 103.053 120.972  1.00  0.00     0.047 A 
BRANCH  21  24
ATOM     24  N   UNL     1     113.965 102.298 120.662  1.00  0.00    -0.356 N 
ATOM     25  C   UNL     1     113.252 101.512 119.644  1.00  0.00     0.123 C 
ATOM     26  C   UNL     1     113.153 102.833 121.761  1.00  0.00     0.123 C 
ATOM     27  C   UNL     1     112.064 102.300 119.093  1.00  0.00     0.087 C 
ATOM     28  C   UNL     1     111.960 103.618 121.216  1.00  0.00     0.087 C 
ATOM     29  C   UNL     1     111.148 102.806 120.207  1.00  0.00     0.171 C 
ATOM     30  O   UNL     1     110.131 103.639 119.628  1.00  0.00    -0.347 OA
ATOM     31  O   UNL     1     110.530 101.695 120.878  1.00  0.00    -0.347 OA
ATOM     32  C   UNL     1     108.910 103.180 120.207  1.00  0.00     0.192 C 
ATOM     33  C   UNL     1     109.170 101.719 120.446  1.00  0.00     0.192 C 
ENDBRANCH  21  24
ENDBRANCH   4  18
BRANCH   9  34
ATOM     34  N   UNL     1     119.238  94.414 121.603  1.00  0.00    -0.383 N 
ATOM     35  H   UNL     1     119.308  93.444 121.877  1.00  0.00     0.158 HD
ATOM     36  H   UNL     1     120.027  94.966 121.924  1.00  0.00     0.158 HD
ENDBRANCH   9  34
TORSDOF 4
ENDMDL
MODEL 9
REMARK VINA RESULT:      -7.4     12.049     14.416
REMARK SMILES Nc1ncnc2nc(-c3cccc(N4CCC5(CC4)OCCO5)n3)cc(-c3ccc(F)cc3)c12
REMARK SMILES IDX 7 1 5 2 3 3 8 4 25 5 26 6 34 7 6 8 2 9 4 10 27 11 30 12
REMARK SMILES IDX 29 13 32 14 28 15 33 16 31 17 9 18 24 19 10 20 13 21 11 22
REMARK SMILES IDX 12 23 14 24 15 25 19 26 16 27 18 28 17 29 20 30 23 31 21 32
REMARK SMILES IDX 22 33 1 34
REMARK H PARENT 1 35 1 36
ROOT
ATOM      1  N   UNL     1     106.110  93.857 115.920  1.00  0.00    -0.226 NA
ATOM      2  N   UNL     1     107.702  93.479 114.281  1.00  0.00    -0.216 NA
ATOM      3  N   UNL     1     107.243  93.908 111.956  1.00  0.00    -0.219 NA
ATOM      4  C   UNL     1     104.863  94.261 116.259  1.00  0.00     0.092 A 
ATOM      5  C   UNL     1     103.917  94.701 115.356  1.00  0.00     0.040 A 
ATOM      6  C   UNL     1     104.284  94.723 114.021  1.00  0.00    -0.001 A 
ATOM      7  C   UNL     1     105.571  94.309 113.650  1.00  0.00     0.069 A 
ATOM      8  C   UNL     1     106.473  93.876 114.629  1.00  0.00     0.165 A 
ATOM      9  C   UNL     1     106.014  94.303 112.329  1.00  0.00     0.136 A 
ATOM     10  C   UNL     1     108.026  93.515 112.971  1.00  0.00     0.226 A 
ENDROOT
BRANCH   6  11
ATOM     11  C   UNL     1     103.258  95.192 113.105  1.00  0.00    -0.017 A 
ATOM     12  C   UNL     1     101.286  96.093 111.350  1.00  0.00     0.123 A 
ATOM     13  C   UNL     1     102.116  97.009 111.996  1.00  0.00     0.040 A 
ATOM     14  C   UNL     1     101.442  94.727 111.583  1.00  0.00     0.040 A 
ATOM     15  C   UNL     1     103.103  96.559 112.873  1.00  0.00     0.012 A 
ATOM     16  C   UNL     1     102.428  94.276 112.461  1.00  0.00     0.012 A 
ATOM     17  F   UNL     1     100.340  96.524 110.507  1.00  0.00    -0.207 F 
ENDBRANCH   6  11
BRANCH   4  18
ATOM     18  C   UNL     1     104.572  94.204 117.672  1.00  0.00     0.091 A 
ATOM     19  N   UNL     1     104.696  95.380 118.328  1.00  0.00    -0.229 NA
ATOM     20  C   UNL     1     104.194  93.016 118.275  1.00  0.00     0.031 A 
ATOM     21  C   UNL     1     104.429  95.358 119.653  1.00  0.00     0.129 A 
ATOM     22  C   UNL     1     103.927  93.034 119.639  1.00  0.00     0.006 A 
ATOM     23  C   UNL     1     104.044  94.223 120.349  1.00  0.00     0.047 A 
BRANCH  21  24
ATOM     24  N   UNL     1     104.543  96.548 120.382  1.00  0.00    -0.356 N 
ATOM     25  C   UNL     1     103.906  96.596 121.706  1.00  0.00     0.123 C 
ATOM     26  C   UNL     1     105.724  97.398 120.194  1.00  0.00     0.123 C 
ATOM     27  C   UNL     1     103.590  98.039 122.097  1.00  0.00     0.087 C 
ATOM     28  C   UNL     1     105.415  98.843 120.588  1.00  0.00     0.087 C 
ATOM     29  C   UNL     1     104.819  98.942 121.992  1.00  0.00     0.171 C 
ATOM     30  O   UNL     1     104.421 100.298 122.250  1.00  0.00    -0.347 OA
ATOM     31  O   UNL     1     105.806  98.542 122.958  1.00  0.00    -0.347 OA
ATOM     32  C   UNL     1     105.385 100.790 123.180  1.00  0.00     0.192 C 
ATOM     33  C   UNL     1     105.774  99.563 123.954  1.00  0.00     0.192 C 
ENDBRANCH  21  24
ENDBRANCH   4  18
BRANCH   9  34
ATOM     34  N   UNL     1     105.184  94.719 111.265  1.00  0.00    -0.383 N 
ATOM     35  H   UNL     1     105.393  94.341 110.351  1.00  0.00     0.158 HD
ATOM     36  H   UNL     1     105.020  95.720 111.242  1.00  0.00     0.158 HD
ENDBRANCH   9  34
TORSDOF 4
ENDMDL
MODEL 10
REMARK VINA RESULT:      -7.4     11.687     13.323
REMARK SMILES Nc1ncnc2nc(-c3cccc(N4CCC5(CC4)OCCO5)n3)cc(-c3ccc(F)cc3)c12
REMARK SMILES IDX 7 1 5 2 3 3 8 4 25 5 26 6 34 7 6 8 2 9 4 10 27 11 30 12
REMARK SMILES IDX 29 13 32 14 28 15 33 16 31 17 9 18 24 19 10 20 13 21 11 22
REMARK SMILES IDX 12 23 14 24 15 25 19 26 16 27 18 28 17 29 20 30 23 31 21 32
REMARK SMILES IDX 22 33 1 34
REMARK H PARENT 1 35 1 36
ROOT
ATOM      1  N   UNL     1     105.654  97.104 115.131  1.00  0.00    -0.226 NA
ATOM      2  N   UNL     1     106.184  97.639 112.941  1.00  0.00    -0.216 NA
ATOM      3  N   UNL     1     106.067  96.000 111.180  1.00  0.00    -0.219 NA
ATOM      4  C   UNL     1     105.250  96.183 116.038  1.00  0.00     0.092 A 
ATOM      5  C   UNL     1     104.959  94.870 115.734  1.00  0.00     0.040 A 
ATOM      6  C   UNL     1     105.094  94.485 114.411  1.00  0.00    -0.001 A 
ATOM      7  C   UNL     1     105.510  95.424 113.456  1.00  0.00     0.069 A 
ATOM      8  C   UNL     1     105.787  96.739 113.847  1.00  0.00     0.165 A 
ATOM      9  C   UNL     1     105.669  95.113 112.107  1.00  0.00     0.136 A 
ATOM     10  C   UNL     1     106.304  97.229 111.660  1.00  0.00     0.226 A 
ENDROOT
BRANCH   6  11
ATOM     11  C   UNL     1     104.778  93.094 114.136  1.00  0.00    -0.017 A 
ATOM     12  C   UNL     1     104.170  90.422 113.612  1.00  0.00     0.123 A 
ATOM     13  C   UNL     1     103.193  91.405 113.449  1.00  0.00     0.040 A 
ATOM     14  C   UNL     1     105.450  90.776 114.038  1.00  0.00     0.040 A 
ATOM     15  C   UNL     1     103.497  92.741 113.710  1.00  0.00     0.012 A 
ATOM     16  C   UNL     1     105.754  92.112 114.301  1.00  0.00     0.012 A 
ATOM     17  F   UNL     1     103.879  89.140 113.360  1.00  0.00    -0.207 F 
ENDBRANCH   6  11
BRANCH   4  18
ATOM     18  C   UNL     1     105.138  96.676 117.391  1.00  0.00     0.091 A 
ATOM     19  N   UNL     1     105.224  98.020 117.517  1.00  0.00    -0.229 NA
ATOM     20  C   UNL     1     104.955  95.808 118.453  1.00  0.00     0.031 A 
ATOM     21  C   UNL     1     105.121  98.512 118.772  1.00  0.00     0.129 A 
ATOM     22  C   UNL     1     104.853  96.352 119.729  1.00  0.00     0.006 A 
ATOM     23  C   UNL     1     104.936  97.729 119.900  1.00  0.00     0.047 A 
BRANCH  21  24
ATOM     24  N   UNL     1     105.204  99.897 118.960  1.00  0.00    -0.356 N 
ATOM     25  C   UNL     1     104.184 100.731 118.308  1.00  0.00     0.123 C 
ATOM     26  C   UNL     1     105.782 100.423 120.201  1.00  0.00     0.123 C 
ATOM     27  C   UNL     1     104.711 102.149 118.090  1.00  0.00     0.087 C 
ATOM     28  C   UNL     1     106.307 101.843 119.991  1.00  0.00     0.087 C 
ATOM     29  C   UNL     1     105.249 102.764 119.381  1.00  0.00     0.171 C 
ATOM     30  O   UNL     1     105.839 104.038 119.078  1.00  0.00    -0.347 OA
ATOM     31  O   UNL     1     104.178 102.946 120.323  1.00  0.00    -0.347 OA
ATOM     32  C   UNL     1     105.311 104.928 120.060  1.00  0.00     0.192 C 
ATOM     33  C   UNL     1     103.952 104.354 120.349  1.00  0.00     0.192 C 
ENDBRANCH  21  24
ENDBRANCH   4  18
BRANCH   9  34
ATOM     34  N   UNL     1     105.417  93.816 111.608  1.00  0.00    -0.383 N 
ATOM     35  H   UNL     1     104.467  93.613 111.329  1.00  0.00     0.158 HD
ATOM     36  H   UNL     1     105.822  93.076 112.173  1.00  0.00     0.158 HD
ENDBRANCH   9  34
TORSDOF 4
ENDMDL
MODEL 11
REMARK VINA RESULT:      -7.3     12.413     13.902
REMARK SMILES Nc1ncnc2nc(-c3cccc(N4CCC5(CC4)OCCO5)n3)cc(-c3ccc(F)cc3)c12
REMARK SMILES IDX 7 1 5 2 3 3 8 4 25 5 26 6 34 7 6 8 2 9 4 10 27 11 30 12
REMARK SMILES IDX 29 13 32 14 28 15 33 16 31 17 9 18 24 19 10 20 13 21 11 22
REMARK SMILES IDX 12 23 14 24 15 25 19 26 16 27 18 28 17 29 20 30 23 31 21 32
REMARK SMILES IDX 22 33 1 34
REMARK H PARENT 1 35 1 36
ROOT
ATOM      1  N   UNL     1     103.153  96.528 117.815  1.00  0.00    -0.226 NA
ATOM      2  N   UNL     1     103.777  94.510 118.764  1.00  0.00    -0.216 NA
ATOM      3  N   UNL     1     104.958  92.835 117.498  1.00  0.00    -0.219 NA
ATOM      4  C   UNL     1     103.124  97.347 116.736  1.00  0.00     0.092 A 
ATOM      5  C   UNL     1     103.666  97.032 115.508  1.00  0.00     0.040 A 
ATOM      6  C   UNL     1     104.275  95.795 115.387  1.00  0.00    -0.001 A 
ATOM      7  C   UNL     1     104.316  94.933 116.492  1.00  0.00     0.069 A 
ATOM      8  C   UNL     1     103.741  95.328 117.706  1.00  0.00     0.165 A 
ATOM      9  C   UNL     1     104.911  93.674 116.449  1.00  0.00     0.136 A 
ATOM     10  C   UNL     1     104.380  93.312 118.610  1.00  0.00     0.226 A 
ENDROOT
BRANCH   6  11
ATOM     11  C   UNL     1     104.832  95.505 114.077  1.00  0.00    -0.017 A 
ATOM     12  C   UNL     1     105.900  94.951 111.560  1.00  0.00     0.123 A 
ATOM     13  C   UNL     1     106.675  95.606 112.518  1.00  0.00     0.040 A 
ATOM     14  C   UNL     1     104.592  94.575 111.862  1.00  0.00     0.040 A 
ATOM     15  C   UNL     1     106.141  95.883 113.777  1.00  0.00     0.012 A 
ATOM     16  C   UNL     1     104.057  94.852 113.120  1.00  0.00     0.012 A 
ATOM     17  F   UNL     1     106.412  94.685 110.353  1.00  0.00    -0.207 F 
ENDBRANCH   6  11
BRANCH   4  18
ATOM     18  C   UNL     1     102.469  98.614 116.958  1.00  0.00     0.091 A 
ATOM     19  N   UNL     1     103.217  99.539 117.601  1.00  0.00    -0.229 NA
ATOM     20  C   UNL     1     101.171  98.831 116.528  1.00  0.00     0.031 A 
ATOM     21  C   UNL     1     102.631 100.737 117.821  1.00  0.00     0.129 A 
ATOM     22  C   UNL     1     100.602 100.077 116.773  1.00  0.00     0.006 A 
ATOM     23  C   UNL     1     101.340 101.053 117.431  1.00  0.00     0.047 A 
BRANCH  21  24
ATOM     24  N   UNL     1     103.362 101.731 118.484  1.00  0.00    -0.356 N 
ATOM     25  C   UNL     1     102.784 102.288 119.716  1.00  0.00     0.123 C 
ATOM     26  C   UNL     1     104.826 101.734 118.389  1.00  0.00     0.123 C 
ATOM     27  C   UNL     1     103.331 103.691 119.977  1.00  0.00     0.087 C 
ATOM     28  C   UNL     1     105.378 103.135 118.654  1.00  0.00     0.087 C 
ATOM     29  C   UNL     1     104.859 103.721 119.966  1.00  0.00     0.171 C 
ATOM     30  O   UNL     1     105.297 105.084 120.090  1.00  0.00    -0.347 OA
ATOM     31  O   UNL     1     105.373 102.952 121.067  1.00  0.00    -0.347 OA
ATOM     32  C   UNL     1     106.307 105.051 121.098  1.00  0.00     0.192 C 
ATOM     33  C   UNL     1     105.870 103.922 121.988  1.00  0.00     0.192 C 
ENDBRANCH  21  24
ENDBRANCH   4  18
BRANCH   9  34
ATOM     34  N   UNL     1     105.519  93.178 115.275  1.00  0.00    -0.383 N 
ATOM     35  H   UNL     1     106.165  92.409 115.388  1.00  0.00     0.158 HD
ATOM     36  H   UNL     1     105.882  93.904 114.665  1.00  0.00     0.158 HD
ENDBRANCH   9  34
TORSDOF 4
ENDMDL
MODEL 12
REMARK VINA RESULT:      -7.2      3.753      8.198
REMARK SMILES Nc1ncnc2nc(-c3cccc(N4CCC5(CC4)OCCO5)n3)cc(-c3ccc(F)cc3)c12
REMARK SMILES IDX 7 1 5 2 3 3 8 4 25 5 26 6 34 7 6 8 2 9 4 10 27 11 30 12
REMARK SMILES IDX 29 13 32 14 28 15 33 16 31 17 9 18 24 19 10 20 13 21 11 22
REMARK SMILES IDX 12 23 14 24 15 25 19 26 16 27 18 28 17 29 20 30 23 31 21 32
REMARK SMILES IDX 22 33 1 34
REMARK H PARENT 1 35 1 36
ROOT
ATOM      1  N   UNL     1     112.984 102.256 119.997  1.00  0.00    -0.226 NA
ATOM      2  N   UNL     1     110.827 103.038 120.315  1.00  0.00    -0.216 NA
ATOM      3  N   UNL     1     109.035 101.560 120.950  1.00  0.00    -0.219 NA
ATOM      4  C   UNL     1     113.858 101.222 119.993  1.00  0.00     0.092 A 
ATOM      5  C   UNL     1     113.520  99.919 120.292  1.00  0.00     0.040 A 
ATOM      6  C   UNL     1     112.197  99.671 120.614  1.00  0.00    -0.001 A 
ATOM      7  C   UNL     1     111.276 100.728 120.623  1.00  0.00     0.069 A 
ATOM      8  C   UNL     1     111.701 102.025 120.308  1.00  0.00     0.165 A 
ATOM      9  C   UNL     1     109.929 100.558 120.937  1.00  0.00     0.136 A 
ATOM     10  C   UNL     1     109.546 102.758 120.634  1.00  0.00     0.226 A 
ENDROOT
BRANCH   6  11
ATOM     11  C   UNL     1     111.884  98.285 120.920  1.00  0.00    -0.017 A 
ATOM     12  C   UNL     1     111.288  95.624 121.508  1.00  0.00     0.123 A 
ATOM     13  C   UNL     1     111.714  96.484 122.521  1.00  0.00     0.040 A 
ATOM     14  C   UNL     1     111.160  96.096 120.202  1.00  0.00     0.040 A 
ATOM     15  C   UNL     1     112.012  97.814 122.227  1.00  0.00     0.012 A 
ATOM     16  C   UNL     1     111.459  97.426 119.908  1.00  0.00     0.012 A 
ATOM     17  F   UNL     1     111.001  94.348 121.791  1.00  0.00    -0.207 F 
ENDBRANCH   6  11
BRANCH   4  18
ATOM     18  C   UNL     1     115.214 101.578 119.647  1.00  0.00     0.091 A 
ATOM     19  N   UNL     1     116.110 100.569 119.740  1.00  0.00    -0.229 NA
ATOM     20  C   UNL     1     115.535 102.865 119.251  1.00  0.00     0.031 A 
ATOM     21  C   UNL     1     117.389 100.871 119.420  1.00  0.00     0.129 A 
ATOM     22  C   UNL     1     116.861 103.137 118.931  1.00  0.00     0.006 A 
ATOM     23  C   UNL     1     117.811 102.126 119.014  1.00  0.00     0.047 A 
BRANCH  21  24
ATOM     24  N   UNL     1     118.358  99.864 119.500  1.00  0.00    -0.356 N 
ATOM     25  C   UNL     1     119.661 100.222 120.079  1.00  0.00     0.123 C 
ATOM     26  C   UNL     1     117.935  98.467 119.656  1.00  0.00     0.123 C 
ATOM     27  C   UNL     1     120.750  99.277 119.571  1.00  0.00     0.087 C 
ATOM     28  C   UNL     1     119.023  97.517 119.154  1.00  0.00     0.087 C 
ATOM     29  C   UNL     1     120.382  97.810 119.790  1.00  0.00     0.171 C 
ATOM     30  O   UNL     1     121.385  96.983 119.178  1.00  0.00    -0.347 OA
ATOM     31  O   UNL     1     120.320  97.523 121.197  1.00  0.00    -0.347 OA
ATOM     32  C   UNL     1     121.706  96.007 120.168  1.00  0.00     0.192 C 
ATOM     33  C   UNL     1     121.483  96.740 121.461  1.00  0.00     0.192 C 
ENDBRANCH  21  24
ENDBRANCH   4  18
BRANCH   9  34
ATOM     34  N   UNL     1     109.397  99.293 121.269  1.00  0.00    -0.383 N 
ATOM     35  H   UNL     1     109.733  98.869 122.122  1.00  0.00     0.158 HD
ATOM     36  H   UNL     1     109.381  98.640 120.491  1.00  0.00     0.158 HD
ENDBRANCH   9  34
TORSDOF 4
ENDMDL
MODEL 13
REMARK VINA RESULT:      -7.2     10.837     13.756
REMARK SMILES Nc1ncnc2nc(-c3cccc(N4CCC5(CC4)OCCO5)n3)cc(-c3ccc(F)cc3)c12
REMARK SMILES IDX 7 1 5 2 3 3 8 4 25 5 26 6 34 7 6 8 2 9 4 10 27 11 30 12
REMARK SMILES IDX 29 13 32 14 28 15 33 16 31 17 9 18 24 19 10 20 13 21 11 22
REMARK SMILES IDX 12 23 14 24 15 25 19 26 16 27 18 28 17 29 20 30 23 31 21 32
REMARK SMILES IDX 22 33 1 34
REMARK H PARENT 1 35 1 36
ROOT
ATOM      1  N   UNL     1     106.166  94.921 116.234  1.00  0.00    -0.226 NA
ATOM      2  N   UNL     1     107.508  93.783 114.729  1.00  0.00    -0.216 NA
ATOM      3  N   UNL     1     106.844  93.476 112.434  1.00  0.00    -0.219 NA
ATOM      4  C   UNL     1     105.021  95.599 116.492  1.00  0.00     0.092 A 
ATOM      5  C   UNL     1     104.040  95.849 115.556  1.00  0.00     0.040 A 
ATOM      6  C   UNL     1     104.255  95.369 114.275  1.00  0.00    -0.001 A 
ATOM      7  C   UNL     1     105.433  94.665 113.988  1.00  0.00     0.069 A 
ATOM      8  C   UNL     1     106.381  94.453 114.996  1.00  0.00     0.165 A 
ATOM      9  C   UNL     1     105.721  94.153 112.725  1.00  0.00     0.136 A 
ATOM     10  C   UNL     1     107.684  93.331 113.469  1.00  0.00     0.226 A 
ENDROOT
BRANCH   6  11
ATOM     11  C   UNL     1     103.196  95.654 113.322  1.00  0.00    -0.017 A 
ATOM     12  C   UNL     1     101.161  96.204 111.495  1.00  0.00     0.123 A 
ATOM     13  C   UNL     1     102.140  97.162 111.757  1.00  0.00     0.040 A 
ATOM     14  C   UNL     1     101.200  94.971 112.147  1.00  0.00     0.040 A 
ATOM     15  C   UNL     1     103.158  96.887 112.670  1.00  0.00     0.012 A 
ATOM     16  C   UNL     1     102.217  94.697 113.061  1.00  0.00     0.012 A 
ATOM     17  F   UNL     1     100.185  96.467 110.618  1.00  0.00    -0.207 F 
ENDBRANCH   6  11
BRANCH   4  18
ATOM     18  C   UNL     1     104.886  96.061 117.853  1.00  0.00     0.091 A 
ATOM     19  N   UNL     1     105.228  97.353 118.054  1.00  0.00    -0.229 NA
ATOM     20  C   UNL     1     104.435  95.215 118.852  1.00  0.00     0.031 A 
ATOM     21  C   UNL     1     105.111  97.816 119.319  1.00  0.00     0.129 A 
ATOM     22  C   UNL     1     104.327  95.727 120.140  1.00  0.00     0.006 A 
ATOM     23  C   UNL     1     104.669  97.051 120.387  1.00  0.00     0.047 A 
BRANCH  21  24
ATOM     24  N   UNL     1     105.452  99.148 119.582  1.00  0.00    -0.356 N 
ATOM     25  C   UNL     1     106.285  99.412 120.764  1.00  0.00     0.123 C 
ATOM     26  C   UNL     1     105.580 100.093 118.468  1.00  0.00     0.123 C 
ATOM     27  C   UNL     1     106.078 100.844 121.256  1.00  0.00     0.087 C 
ATOM     28  C   UNL     1     105.378 101.528 118.955  1.00  0.00     0.087 C 
ATOM     29  C   UNL     1     106.283 101.868 120.140  1.00  0.00     0.171 C 
ATOM     30  O   UNL     1     105.950 103.173 120.640  1.00  0.00    -0.347 OA
ATOM     31  O   UNL     1     107.655 101.857 119.709  1.00  0.00    -0.347 OA
ATOM     32  C   UNL     1     107.033 104.007 120.231  1.00  0.00     0.192 C 
ATOM     33  C   UNL     1     108.207 103.068 120.223  1.00  0.00     0.192 C 
ENDBRANCH  21  24
ENDBRANCH   4  18
BRANCH   9  34
ATOM     34  N   UNL     1     104.833  94.310 111.639  1.00  0.00    -0.383 N 
ATOM     35  H   UNL     1     105.073  95.014 110.954  1.00  0.00     0.158 HD
ATOM     36  H   UNL     1     103.856  94.352 111.912  1.00  0.00     0.158 HD
ENDBRANCH   9  34
TORSDOF 4
ENDMDL
MODEL 14
REMARK VINA RESULT:      -7.2      4.495      9.176
REMARK SMILES Nc1ncnc2nc(-c3cccc(N4CCC5(CC4)OCCO5)n3)cc(-c3ccc(F)cc3)c12
REMARK SMILES IDX 7 1 5 2 3 3 8 4 25 5 26 6 34 7 6 8 2 9 4 10 27 11 30 12
REMARK SMILES IDX 29 13 32 14 28 15 33 16 31 17 9 18 24 19 10 20 13 21 11 22
REMARK SMILES IDX 12 23 14 24 15 25 19 26 16 27 18 28 17 29 20 30 23 31 21 32
REMARK SMILES IDX 22 33 1 34
REMARK H PARENT 1 35 1 36
ROOT
ATOM      1  N   UNL     1     113.279  99.573 120.301  1.00  0.00    -0.226 NA
ATOM      2  N   UNL     1     111.942  97.753 120.818  1.00  0.00    -0.216 NA
ATOM      3  N   UNL     1     109.647  98.029 121.492  1.00  0.00    -0.219 NA
ATOM      4  C   UNL     1     113.420 100.914 120.174  1.00  0.00     0.092 A 
ATOM      5  C   UNL     1     112.416 101.826 120.419  1.00  0.00     0.040 A 
ATOM      6  C   UNL     1     111.191 101.322 120.819  1.00  0.00    -0.001 A 
ATOM      7  C   UNL     1     111.024  99.936 120.957  1.00  0.00     0.069 A 
ATOM      8  C   UNL     1     112.095  99.076 120.689  1.00  0.00     0.165 A 
ATOM      9  C   UNL     1     109.823  99.353 121.355  1.00  0.00     0.136 A 
ATOM     10  C   UNL     1     110.734  97.297 121.210  1.00  0.00     0.226 A 
ENDROOT
BRANCH   6  11
ATOM     11  C   UNL     1     110.162 102.318 121.067  1.00  0.00    -0.017 A 
ATOM     12  C   UNL     1     108.190 104.233 121.540  1.00  0.00     0.123 A 
ATOM     13  C   UNL     1     108.297 103.638 120.283  1.00  0.00     0.040 A 
ATOM     14  C   UNL     1     109.070 103.871 122.559  1.00  0.00     0.040 A 
ATOM     15  C   UNL     1     109.283 102.680 120.046  1.00  0.00     0.012 A 
ATOM     16  C   UNL     1     110.056 102.913 122.323  1.00  0.00     0.012 A 
ATOM     17  F   UNL     1     107.244 105.152 121.768  1.00  0.00    -0.207 F 
ENDBRANCH   6  11
BRANCH   4  18
ATOM     18  C   UNL     1     114.731 101.346 119.751  1.00  0.00     0.091 A 
ATOM     19  N   UNL     1     115.696 100.401 119.829  1.00  0.00    -0.229 NA
ATOM     20  C   UNL     1     114.947 102.638 119.303  1.00  0.00     0.031 A 
ATOM     21  C   UNL     1     116.935 100.775 119.438  1.00  0.00     0.129 A 
ATOM     22  C   UNL     1     116.235 102.985 118.910  1.00  0.00     0.006 A 
ATOM     23  C   UNL     1     117.253 102.042 118.975  1.00  0.00     0.047 A 
BRANCH  21  24
ATOM     24  N   UNL     1     117.971  99.836 119.498  1.00  0.00    -0.356 N 
ATOM     25  C   UNL     1     119.226 100.253 120.142  1.00  0.00     0.123 C 
ATOM     26  C   UNL     1     117.647  98.407 119.564  1.00  0.00     0.123 C 
ATOM     27  C   UNL     1     120.396  99.418 119.624  1.00  0.00     0.087 C 
ATOM     28  C   UNL     1     118.816  97.566 119.051  1.00  0.00     0.087 C 
ATOM     29  C   UNL     1     120.129  97.918 119.750  1.00  0.00     0.171 C 
ATOM     30  O   UNL     1     121.209  97.200 119.132  1.00  0.00    -0.347 OA
ATOM     31  O   UNL     1     120.043  97.550 121.137  1.00  0.00    -0.347 OA
ATOM     32  C   UNL     1     121.568  96.195 120.079  1.00  0.00     0.192 C 
ATOM     33  C   UNL     1     121.251  96.837 121.400  1.00  0.00     0.192 C 
ENDBRANCH  21  24
ENDBRANCH   4  18
BRANCH   9  34
ATOM     34  N   UNL     1     108.681 100.130 121.650  1.00  0.00    -0.383 N 
ATOM     35  H   UNL     1     107.849  99.939 121.109  1.00  0.00     0.158 HD
ATOM     36  H   UNL     1     108.872 101.124 121.728  1.00  0.00     0.158 HD
ENDBRANCH   9  34
TORSDOF 4
ENDMDL
MODEL 15
REMARK VINA RESULT:      -7.1      2.755      4.477
REMARK SMILES Nc1ncnc2nc(-c3cccc(N4CCC5(CC4)OCCO5)n3)cc(-c3ccc(F)cc3)c12
REMARK SMILES IDX 7 1 5 2 3 3 8 4 25 5 26 6 34 7 6 8 2 9 4 10 27 11 30 12
REMARK SMILES IDX 29 13 32 14 28 15 33 16 31 17 9 18 24 19 10 20 13 21 11 22
REMARK SMILES IDX 12 23 14 24 15 25 19 26 16 27 18 28 17 29 20 30 23 31 21 32
REMARK SMILES IDX 22 33 1 34
REMARK H PARENT 1 35 1 36
ROOT
ATOM      1  N   UNL     1     114.650  98.426 122.263  1.00  0.00    -0.226 NA
ATOM      2  N   UNL     1     114.139  96.329 123.103  1.00  0.00    -0.216 NA
ATOM      3  N   UNL     1     115.741  94.531 123.057  1.00  0.00    -0.219 NA
ATOM      4  C   UNL     1     115.540  99.258 121.671  1.00  0.00     0.092 A 
ATOM      5  C   UNL     1     116.818  98.891 121.304  1.00  0.00     0.040 A 
ATOM      6  C   UNL     1     117.198  97.586 121.565  1.00  0.00    -0.001 A 
ATOM      7  C   UNL     1     116.291  96.710 122.177  1.00  0.00     0.069 A 
ATOM      8  C   UNL     1     115.010  97.160 122.519  1.00  0.00     0.165 A 
ATOM      9  C   UNL     1     116.599  95.383 122.472  1.00  0.00     0.136 A 
ATOM     10  C   UNL     1     114.545  95.064 123.343  1.00  0.00     0.226 A 
ENDROOT
BRANCH   6  11
ATOM     11  C   UNL     1     118.551  97.243 121.162  1.00  0.00    -0.017 A 
ATOM     12  C   UNL     1     121.148  96.581 120.389  1.00  0.00     0.123 A 
ATOM     13  C   UNL     1     120.104  96.498 119.468  1.00  0.00     0.040 A 
ATOM     14  C   UNL     1     120.893  96.995 121.696  1.00  0.00     0.040 A 
ATOM     15  C   UNL     1     118.805  96.829 119.854  1.00  0.00     0.012 A 
ATOM     16  C   UNL     1     119.595  97.326 122.083  1.00  0.00     0.012 A 
ATOM     17  F   UNL     1     122.395  96.264 120.018  1.00  0.00    -0.207 F 
ENDBRANCH   6  11
BRANCH   4  18
ATOM     18  C   UNL     1     115.055 100.598 121.440  1.00  0.00     0.091 A 
ATOM     19  N   UNL     1     113.708 100.718 121.404  1.00  0.00    -0.229 NA
ATOM     20  C   UNL     1     115.933 101.655 121.274  1.00  0.00     0.031 A 
ATOM     21  C   UNL     1     113.224 101.962 121.190  1.00  0.00     0.129 A 
ATOM     22  C   UNL     1     115.396 102.920 121.057  1.00  0.00     0.006 A 
ATOM     23  C   UNL     1     114.016 103.085 121.013  1.00  0.00     0.047 A 
BRANCH  21  24
ATOM     24  N   UNL     1     111.836 102.144 121.143  1.00  0.00    -0.356 N 
ATOM     25  C   UNL     1     111.244 102.502 119.846  1.00  0.00     0.123 C 
ATOM     26  C   UNL     1     110.979 101.395 122.069  1.00  0.00     0.123 C 
ATOM     27  C   UNL     1     109.915 103.230 120.047  1.00  0.00     0.087 C 
ATOM     28  C   UNL     1     109.646 102.116 122.270  1.00  0.00     0.087 C 
ATOM     29  C   UNL     1     108.960 102.441 120.942  1.00  0.00     0.171 C 
ATOM     30  O   UNL     1     107.790 103.238 121.189  1.00  0.00    -0.347 OA
ATOM     31  O   UNL     1     108.576 101.217 120.293  1.00  0.00    -0.347 OA
ATOM     32  C   UNL     1     106.693 102.357 120.953  1.00  0.00     0.192 C 
ATOM     33  C   UNL     1     107.221 101.424 119.899  1.00  0.00     0.192 C 
ENDBRANCH  21  24
ENDBRANCH   4  18
BRANCH   9  34
ATOM     34  N   UNL     1     117.861  94.829 122.168  1.00  0.00    -0.383 N 
ATOM     35  H   UNL     1     118.642  95.470 122.130  1.00  0.00     0.158 HD
ATOM     36  H   UNL     1     117.847  94.187 121.382  1.00  0.00     0.158 HD
ENDBRANCH   9  34
TORSDOF 4
ENDMDL
