MODEL 1
REMARK VINA RESULT:      -8.4      0.000      0.000
REMARK SMILES C[C@@H](Oc1cccc(C#N)c1)C(=O)NNC(=O)Cc1ccc2ccccc2c1
REMARK SMILES IDX 13 1 14 2 12 3 2 5 1 6 3 7 4 8 11 9 5 10 8 11 6 12 7 13 9 14
REMARK SMILES IDX 10 15 15 16 16 17 17 18 18 20 19 21 28 22 20 23 27 24 21 25
REMARK SMILES IDX 22 26 26 27 23 28 25 29 24 30
REMARK H PARENT 14 4 15 19
ROOT
ATOM      1  O   UNL     1     110.967  94.511 119.157  1.00  0.00    -0.269 OA
ATOM      2  N   UNL     1     109.134  95.289 120.349  1.00  0.00    -0.264 N 
ATOM      3  C   UNL     1     110.481  95.207 120.046  1.00  0.00     0.279 C 
ATOM      4  H   UNL     1     108.745  95.895 121.062  1.00  0.00     0.191 HD
ENDROOT
BRANCH   3   5
ATOM      5  C   UNL     1     111.328  96.104 120.936  1.00  0.00     0.260 C 
ATOM      6  C   UNL     1     110.569  97.363 121.326  1.00  0.00     0.064 C 
BRANCH   5   7
ATOM      7  O   UNL     1     111.664  95.403 122.121  1.00  0.00    -0.481 OA
BRANCH   7   8
ATOM      8  C   UNL     1     112.998  95.314 122.434  1.00  0.00     0.121 A 
ATOM      9  C   UNL     1     113.872  94.648 121.576  1.00  0.00     0.066 A 
ATOM     10  C   UNL     1     113.478  95.891 123.611  1.00  0.00     0.046 A 
ATOM     11  C   UNL     1     115.227  94.558 121.894  1.00  0.00     0.056 A 
ATOM     12  C   UNL     1     114.833  95.800 123.928  1.00  0.00     0.005 A 
ATOM     13  C   UNL     1     115.708  95.134 123.070  1.00  0.00     0.020 A 
ATOM     14  C   UNL     1     116.123  93.875 121.015  1.00  0.00     0.099 C 
ATOM     15  N   UNL     1     116.852  93.322 120.301  1.00  0.00    -0.192 NA
ENDBRANCH   7   8
ENDBRANCH   5   7
ENDBRANCH   3   5
BRANCH   2  16
ATOM     16  N   UNL     1     108.242  94.546 119.617  1.00  0.00    -0.267 N 
ATOM     17  C   UNL     1     107.043  95.121 119.244  1.00  0.00     0.242 C 
ATOM     18  O   UNL     1     106.689  96.268 119.513  1.00  0.00    -0.273 OA
ATOM     19  H   UNL     1     108.517  93.597 119.389  1.00  0.00     0.191 HD
BRANCH  17  20
ATOM     20  C   UNL     1     106.156  94.173 118.464  1.00  0.00     0.137 C 
BRANCH  20  21
ATOM     21  C   UNL     1     106.147  94.508 116.996  1.00  0.00    -0.038 A 
ATOM     22  C   UNL     1     106.927  93.767 116.107  1.00  0.00     0.013 A 
ATOM     23  C   UNL     1     105.362  95.558 116.527  1.00  0.00     0.005 A 
ATOM     24  C   UNL     1     106.930  94.069 114.735  1.00  0.00    -0.018 A 
ATOM     25  C   UNL     1     105.354  95.870 115.167  1.00  0.00     0.009 A 
ATOM     26  C   UNL     1     106.133  95.136 114.258  1.00  0.00    -0.018 A 
ATOM     27  C   UNL     1     107.709  93.333 113.826  1.00  0.00     0.009 A 
ATOM     28  C   UNL     1     106.137  95.436 112.887  1.00  0.00     0.009 A 
ATOM     29  C   UNL     1     107.701  93.647 112.466  1.00  0.00     0.001 A 
ATOM     30  C   UNL     1     106.916  94.696 111.997  1.00  0.00     0.001 A 
ENDBRANCH  20  21
ENDBRANCH  17  20
ENDBRANCH   2  16
TORSDOF 6
ENDMDL
MODEL 2
REMARK VINA RESULT:      -8.0      2.398      3.923
REMARK SMILES C[C@@H](Oc1cccc(C#N)c1)C(=O)NNC(=O)Cc1ccc2ccccc2c1
REMARK SMILES IDX 13 1 14 2 12 3 2 5 1 6 3 7 4 8 11 9 5 10 8 11 6 12 7 13 9 14
REMARK SMILES IDX 10 15 15 16 16 17 17 18 18 20 19 21 28 22 20 23 27 24 21 25
REMARK SMILES IDX 22 26 26 27 23 28 25 29 24 30
REMARK H PARENT 14 4 15 19
ROOT
ATOM      1  O   UNL     1     110.785  94.520 119.294  1.00  0.00    -0.269 OA
ATOM      2  N   UNL     1     108.902  95.398 120.325  1.00  0.00    -0.264 N 
ATOM      3  C   UNL     1     110.263  95.267 120.119  1.00  0.00     0.279 C 
ATOM      4  H   UNL     1     108.484  96.045 120.985  1.00  0.00     0.191 HD
ENDROOT
BRANCH   3   5
ATOM      5  C   UNL     1     111.075  96.178 121.027  1.00  0.00     0.260 C 
ATOM      6  C   UNL     1     112.067  95.380 121.858  1.00  0.00     0.064 C 
BRANCH   5   7
ATOM      7  O   UNL     1     111.801  97.101 120.233  1.00  0.00    -0.481 OA
BRANCH   7   8
ATOM      8  C   UNL     1     111.480  98.428 120.372  1.00  0.00     0.121 A 
ATOM      9  C   UNL     1     112.151  99.390 119.619  1.00  0.00     0.066 A 
ATOM     10  C   UNL     1     110.482  98.814 121.268  1.00  0.00     0.046 A 
ATOM     11  C   UNL     1     111.825 100.739 119.760  1.00  0.00     0.056 A 
ATOM     12  C   UNL     1     110.156 100.163 121.409  1.00  0.00     0.005 A 
ATOM     13  C   UNL     1     110.827 101.126 120.655  1.00  0.00     0.020 A 
ATOM     14  C   UNL     1     112.512 101.725 118.988  1.00  0.00     0.099 C 
ATOM     15  N   UNL     1     113.070 102.527 118.360  1.00  0.00    -0.192 NA
ENDBRANCH   7   8
ENDBRANCH   5   7
ENDBRANCH   3   5
BRANCH   2  16
ATOM     16  N   UNL     1     108.039  94.649 119.566  1.00  0.00    -0.267 N 
ATOM     17  C   UNL     1     106.832  95.202 119.184  1.00  0.00     0.242 C 
ATOM     18  O   UNL     1     106.447  96.336 119.470  1.00  0.00    -0.273 OA
ATOM     19  H   UNL     1     108.340  93.711 119.324  1.00  0.00     0.191 HD
BRANCH  17  20
ATOM     20  C   UNL     1     105.980  94.249 118.373  1.00  0.00     0.137 C 
BRANCH  20  21
ATOM     21  C   UNL     1     106.033  94.576 116.904  1.00  0.00    -0.038 A 
ATOM     22  C   UNL     1     106.808  93.796 116.044  1.00  0.00     0.013 A 
ATOM     23  C   UNL     1     105.312  95.656 116.405  1.00  0.00     0.005 A 
ATOM     24  C   UNL     1     106.869  94.089 114.672  1.00  0.00    -0.018 A 
ATOM     25  C   UNL     1     105.362  95.961 115.045  1.00  0.00     0.009 A 
ATOM     26  C   UNL     1     106.136  95.187 114.164  1.00  0.00    -0.018 A 
ATOM     27  C   UNL     1     107.643  93.315 113.792  1.00  0.00     0.009 A 
ATOM     28  C   UNL     1     106.197  95.480 112.792  1.00  0.00     0.009 A 
ATOM     29  C   UNL     1     107.694  93.620 112.431  1.00  0.00     0.001 A 
ATOM     30  C   UNL     1     106.972  94.700 111.932  1.00  0.00     0.001 A 
ENDBRANCH  20  21
ENDBRANCH  17  20
ENDBRANCH   2  16
TORSDOF 6
ENDMDL
MODEL 3
REMARK VINA RESULT:      -8.0      6.655      9.028
REMARK SMILES C[C@@H](Oc1cccc(C#N)c1)C(=O)NNC(=O)Cc1ccc2ccccc2c1
REMARK SMILES IDX 13 1 14 2 12 3 2 5 1 6 3 7 4 8 11 9 5 10 8 11 6 12 7 13 9 14
REMARK SMILES IDX 10 15 15 16 16 17 17 18 18 20 19 21 28 22 20 23 27 24 21 25
REMARK SMILES IDX 22 26 26 27 23 28 25 29 24 30
REMARK H PARENT 14 4 15 19
ROOT
ATOM      1  O   UNL     1     104.427  94.088 116.886  1.00  0.00    -0.269 OA
ATOM      2  N   UNL     1     105.060  91.856 116.862  1.00  0.00    -0.264 N 
ATOM      3  C   UNL     1     104.590  93.012 117.458  1.00  0.00     0.279 C 
ATOM      4  H   UNL     1     105.156  90.966 117.339  1.00  0.00     0.191 HD
ENDROOT
BRANCH   3   5
ATOM      5  C   UNL     1     104.269  92.812 118.931  1.00  0.00     0.260 C 
ATOM      6  C   UNL     1     105.223  93.602 119.813  1.00  0.00     0.064 C 
BRANCH   5   7
ATOM      7  O   UNL     1     102.950  93.265 119.187  1.00  0.00    -0.481 OA
BRANCH   7   8
ATOM      8  C   UNL     1     102.251  92.618 120.175  1.00  0.00     0.121 A 
ATOM      9  C   UNL     1     101.997  93.262 121.385  1.00  0.00     0.066 A 
ATOM     10  C   UNL     1     101.793  91.316 119.968  1.00  0.00     0.046 A 
ATOM     11  C   UNL     1     101.285  92.605 122.390  1.00  0.00     0.056 A 
ATOM     12  C   UNL     1     101.083  90.659 120.972  1.00  0.00     0.005 A 
ATOM     13  C   UNL     1     100.829  91.303 122.183  1.00  0.00     0.020 A 
ATOM     14  C   UNL     1     101.026  93.264 123.630  1.00  0.00     0.099 C 
ATOM     15  N   UNL     1     100.813  93.800 124.638  1.00  0.00    -0.192 NA
ENDBRANCH   7   8
ENDBRANCH   5   7
ENDBRANCH   3   5
BRANCH   2  16
ATOM     16  N   UNL     1     105.378  91.878 115.527  1.00  0.00    -0.267 N 
ATOM     17  C   UNL     1     104.476  91.363 114.618  1.00  0.00     0.242 C 
ATOM     18  O   UNL     1     103.382  90.873 114.899  1.00  0.00    -0.273 OA
ATOM     19  H   UNL     1     106.277  92.275 115.279  1.00  0.00     0.191 HD
BRANCH  17  20
ATOM     20  C   UNL     1     104.976  91.435 113.190  1.00  0.00     0.137 C 
BRANCH  20  21
ATOM     21  C   UNL     1     105.314  92.848 112.795  1.00  0.00    -0.038 A 
ATOM     22  C   UNL     1     104.356  93.855 112.918  1.00  0.00     0.013 A 
ATOM     23  C   UNL     1     106.582  93.149 112.305  1.00  0.00     0.005 A 
ATOM     24  C   UNL     1     104.655  95.177 112.551  1.00  0.00    -0.018 A 
ATOM     25  C   UNL     1     106.896  94.457 111.937  1.00  0.00     0.009 A 
ATOM     26  C   UNL     1     105.943  95.483 112.054  1.00  0.00    -0.018 A 
ATOM     27  C   UNL     1     103.703  96.203 112.669  1.00  0.00     0.009 A 
ATOM     28  C   UNL     1     106.242  96.805 111.688  1.00  0.00     0.009 A 
ATOM     29  C   UNL     1     104.017  97.511 112.300  1.00  0.00     0.001 A 
ATOM     30  C   UNL     1     105.284  97.812 111.811  1.00  0.00     0.001 A 
ENDBRANCH  20  21
ENDBRANCH  17  20
ENDBRANCH   2  16
TORSDOF 6
ENDMDL
MODEL 4
REMARK VINA RESULT:      -8.0      2.936      9.184
REMARK SMILES C[C@@H](Oc1cccc(C#N)c1)C(=O)NNC(=O)Cc1ccc2ccccc2c1
REMARK SMILES IDX 13 1 14 2 12 3 2 5 1 6 3 7 4 8 11 9 5 10 8 11 6 12 7 13 9 14
REMARK SMILES IDX 10 15 15 16 16 17 17 18 18 20 19 21 28 22 20 23 27 24 21 25
REMARK SMILES IDX 22 26 26 27 23 28 25 29 24 30
REMARK H PARENT 14 4 15 19
ROOT
ATOM      1  O   UNL     1     106.359  95.861 118.880  1.00  0.00    -0.269 OA
ATOM      2  N   UNL     1     107.963  94.188 118.982  1.00  0.00    -0.264 N 
ATOM      3  C   UNL     1     106.831  94.801 118.475  1.00  0.00     0.279 C 
ATOM      4  H   UNL     1     108.362  93.331 118.615  1.00  0.00     0.191 HD
ENDROOT
BRANCH   3   5
ATOM      5  C   UNL     1     106.221  94.021 117.322  1.00  0.00     0.260 C 
ATOM      6  C   UNL     1     104.880  93.422 117.714  1.00  0.00     0.064 C 
BRANCH   5   7
ATOM      7  O   UNL     1     106.013  94.895 116.225  1.00  0.00    -0.481 OA
BRANCH   7   8
ATOM      8  C   UNL     1     106.560  94.525 115.022  1.00  0.00     0.121 A 
ATOM      9  C   UNL     1     106.232  95.225 113.862  1.00  0.00     0.066 A 
ATOM     10  C   UNL     1     107.446  93.448 114.961  1.00  0.00     0.046 A 
ATOM     11  C   UNL     1     106.789  94.849 112.639  1.00  0.00     0.056 A 
ATOM     12  C   UNL     1     108.002  93.072 113.738  1.00  0.00     0.005 A 
ATOM     13  C   UNL     1     107.673  93.772 112.577  1.00  0.00     0.020 A 
ATOM     14  C   UNL     1     106.452  95.566 111.450  1.00  0.00     0.099 C 
ATOM     15  N   UNL     1     106.180  96.149 110.484  1.00  0.00    -0.192 NA
ENDBRANCH   7   8
ENDBRANCH   5   7
ENDBRANCH   3   5
BRANCH   2  16
ATOM     16  N   UNL     1     108.635  94.785 120.020  1.00  0.00    -0.267 N 
ATOM     17  C   UNL     1     110.008  94.903 119.946  1.00  0.00     0.242 C 
ATOM     18  O   UNL     1     110.707  94.512 119.011  1.00  0.00    -0.273 OA
ATOM     19  H   UNL     1     108.073  95.110 120.799  1.00  0.00     0.191 HD
BRANCH  17  20
ATOM     20  C   UNL     1     110.608  95.559 121.172  1.00  0.00     0.137 C 
BRANCH  20  21
ATOM     21  C   UNL     1     110.569  97.061 121.069  1.00  0.00    -0.038 A 
ATOM     22  C   UNL     1     111.556  97.736 120.350  1.00  0.00     0.013 A 
ATOM     23  C   UNL     1     109.549  97.775 121.691  1.00  0.00     0.005 A 
ATOM     24  C   UNL     1     111.534  99.137 120.246  1.00  0.00    -0.018 A 
ATOM     25  C   UNL     1     109.513  99.166 121.597  1.00  0.00     0.009 A 
ATOM     26  C   UNL     1     110.498  99.862 120.879  1.00  0.00    -0.018 A 
ATOM     27  C   UNL     1     112.520  99.832 119.526  1.00  0.00     0.009 A 
ATOM     28  C   UNL     1     110.477 101.262 120.774  1.00  0.00     0.009 A 
ATOM     29  C   UNL     1     112.484 101.224 119.433  1.00  0.00     0.001 A 
ATOM     30  C   UNL     1     111.464 101.938 120.055  1.00  0.00     0.001 A 
ENDBRANCH  20  21
ENDBRANCH  17  20
ENDBRANCH   2  16
TORSDOF 6
ENDMDL
MODEL 5
REMARK VINA RESULT:      -8.0      6.098      8.645
REMARK SMILES C[C@@H](Oc1cccc(C#N)c1)C(=O)NNC(=O)Cc1ccc2ccccc2c1
REMARK SMILES IDX 13 1 14 2 12 3 2 5 1 6 3 7 4 8 11 9 5 10 8 11 6 12 7 13 9 14
REMARK SMILES IDX 10 15 15 16 16 17 17 18 18 20 19 21 28 22 20 23 27 24 21 25
REMARK SMILES IDX 22 26 26 27 23 28 25 29 24 30
REMARK H PARENT 14 4 15 19
ROOT
ATOM      1  O   UNL     1     102.515  93.141 116.690  1.00  0.00    -0.269 OA
ATOM      2  N   UNL     1     103.836  92.041 118.248  1.00  0.00    -0.264 N 
ATOM      3  C   UNL     1     102.635  92.470 117.713  1.00  0.00     0.279 C 
ATOM      4  H   UNL     1     103.917  91.457 119.073  1.00  0.00     0.191 HD
ENDROOT
BRANCH   3   5
ATOM      5  C   UNL     1     101.440  92.001 118.528  1.00  0.00     0.260 C 
ATOM      6  C   UNL     1     100.596  91.009 117.743  1.00  0.00     0.064 C 
BRANCH   5   7
ATOM      7  O   UNL     1     101.900  91.360 119.705  1.00  0.00    -0.481 OA
BRANCH   7   8
ATOM      8  C   UNL     1     101.601  91.965 120.901  1.00  0.00     0.121 A 
ATOM      9  C   UNL     1     102.455  92.937 121.422  1.00  0.00     0.066 A 
ATOM     10  C   UNL     1     100.444  91.607 121.593  1.00  0.00     0.046 A 
ATOM     11  C   UNL     1     102.151  93.552 122.637  1.00  0.00     0.056 A 
ATOM     12  C   UNL     1     100.141  92.222 122.807  1.00  0.00     0.005 A 
ATOM     13  C   UNL     1     100.994  93.194 123.330  1.00  0.00     0.020 A 
ATOM     14  C   UNL     1     103.025  94.548 123.171  1.00  0.00     0.099 C 
ATOM     15  N   UNL     1     103.733  95.358 123.606  1.00  0.00    -0.192 NA
ENDBRANCH   7   8
ENDBRANCH   5   7
ENDBRANCH   3   5
BRANCH   2  16
ATOM     16  N   UNL     1     105.005  92.373 117.610  1.00  0.00    -0.267 N 
ATOM     17  C   UNL     1     105.710  93.479 118.043  1.00  0.00     0.242 C 
ATOM     18  O   UNL     1     105.380  94.215 118.972  1.00  0.00    -0.273 OA
ATOM     19  H   UNL     1     105.289  91.778 116.840  1.00  0.00     0.191 HD
BRANCH  17  20
ATOM     20  C   UNL     1     106.962  93.731 117.228  1.00  0.00     0.137 C 
BRANCH  20  21
ATOM     21  C   UNL     1     106.632  94.277 115.865  1.00  0.00    -0.038 A 
ATOM     22  C   UNL     1     107.179  93.684 114.725  1.00  0.00     0.013 A 
ATOM     23  C   UNL     1     105.784  95.374 115.740  1.00  0.00     0.005 A 
ATOM     24  C   UNL     1     106.882  94.183 113.446  1.00  0.00    -0.018 A 
ATOM     25  C   UNL     1     105.479  95.881 114.477  1.00  0.00     0.009 A 
ATOM     26  C   UNL     1     106.020  95.298 113.320  1.00  0.00    -0.018 A 
ATOM     27  C   UNL     1     107.424  93.599 112.289  1.00  0.00     0.009 A 
ATOM     28  C   UNL     1     105.724  95.796 112.041  1.00  0.00     0.009 A 
ATOM     29  C   UNL     1     107.119  94.108 111.026  1.00  0.00     0.001 A 
ATOM     30  C   UNL     1     106.271  95.203 110.902  1.00  0.00     0.001 A 
ENDBRANCH  20  21
ENDBRANCH  17  20
ENDBRANCH   2  16
TORSDOF 6
ENDMDL
MODEL 6
REMARK VINA RESULT:      -7.9      1.386      1.726
REMARK SMILES C[C@@H](Oc1cccc(C#N)c1)C(=O)NNC(=O)Cc1ccc2ccccc2c1
REMARK SMILES IDX 13 1 14 2 12 3 2 5 1 6 3 7 4 8 11 9 5 10 8 11 6 12 7 13 9 14
REMARK SMILES IDX 10 15 15 16 16 17 17 18 18 20 19 21 28 22 20 23 27 24 21 25
REMARK SMILES IDX 22 26 26 27 23 28 25 29 24 30
REMARK H PARENT 14 4 15 19
ROOT
ATOM      1  O   UNL     1     110.975  94.630 119.447  1.00  0.00    -0.269 OA
ATOM      2  N   UNL     1     109.041  95.488 120.400  1.00  0.00    -0.264 N 
ATOM      3  C   UNL     1     110.410  95.400 120.221  1.00  0.00     0.279 C 
ATOM      4  H   UNL     1     108.587  96.154 121.016  1.00  0.00     0.191 HD
ENDROOT
BRANCH   3   5
ATOM      5  C   UNL     1     111.170  96.392 121.088  1.00  0.00     0.260 C 
ATOM      6  C   UNL     1     110.256  97.502 121.581  1.00  0.00     0.064 C 
BRANCH   5   7
ATOM      7  O   UNL     1     111.698  95.717 122.217  1.00  0.00    -0.481 OA
BRANCH   7   8
ATOM      8  C   UNL     1     113.065  95.672 122.333  1.00  0.00     0.121 A 
ATOM      9  C   UNL     1     113.778  96.835 122.618  1.00  0.00     0.066 A 
ATOM     10  C   UNL     1     113.739  94.462 122.166  1.00  0.00     0.046 A 
ATOM     11  C   UNL     1     115.168  96.790 122.736  1.00  0.00     0.056 A 
ATOM     12  C   UNL     1     115.128  94.417 122.284  1.00  0.00     0.005 A 
ATOM     13  C   UNL     1     115.843  95.580 122.568  1.00  0.00     0.020 A 
ATOM     14  C   UNL     1     115.900  97.982 123.027  1.00  0.00     0.099 C 
ATOM     15  N   UNL     1     116.495  98.949 123.266  1.00  0.00    -0.192 NA
ENDBRANCH   7   8
ENDBRANCH   5   7
ENDBRANCH   3   5
BRANCH   2  16
ATOM     16  N   UNL     1     108.221  94.665 119.671  1.00  0.00    -0.267 N 
ATOM     17  C   UNL     1     107.008  95.154 119.227  1.00  0.00     0.242 C 
ATOM     18  O   UNL     1     106.581  96.290 119.429  1.00  0.00    -0.273 OA
ATOM     19  H   UNL     1     108.556  93.723 119.498  1.00  0.00     0.191 HD
BRANCH  17  20
ATOM     20  C   UNL     1     106.206  94.123 118.459  1.00  0.00     0.137 C 
BRANCH  20  21
ATOM     21  C   UNL     1     106.152  94.448 116.990  1.00  0.00    -0.038 A 
ATOM     22  C   UNL     1     106.962  93.752 116.092  1.00  0.00     0.013 A 
ATOM     23  C   UNL     1     105.296  95.444 116.529  1.00  0.00     0.005 A 
ATOM     24  C   UNL     1     106.925  94.045 114.719  1.00  0.00    -0.018 A 
ATOM     25  C   UNL     1     105.247  95.747 115.168  1.00  0.00     0.009 A 
ATOM     26  C   UNL     1     106.056  95.057 114.250  1.00  0.00    -0.018 A 
ATOM     27  C   UNL     1     107.734  93.354 113.801  1.00  0.00     0.009 A 
ATOM     28  C   UNL     1     106.018  95.349 112.877  1.00  0.00     0.009 A 
ATOM     29  C   UNL     1     107.684  93.658 112.440  1.00  0.00     0.001 A 
ATOM     30  C   UNL     1     106.828  94.653 111.979  1.00  0.00     0.001 A 
ENDBRANCH  20  21
ENDBRANCH  17  20
ENDBRANCH   2  16
TORSDOF 6
ENDMDL
MODEL 7
REMARK VINA RESULT:      -7.7      8.168     11.538
REMARK SMILES C[C@@H](Oc1cccc(C#N)c1)C(=O)NNC(=O)Cc1ccc2ccccc2c1
REMARK SMILES IDX 13 1 14 2 12 3 2 5 1 6 3 7 4 8 11 9 5 10 8 11 6 12 7 13 9 14
REMARK SMILES IDX 10 15 15 16 16 17 17 18 18 20 19 21 28 22 20 23 27 24 21 25
REMARK SMILES IDX 22 26 26 27 23 28 25 29 24 30
REMARK H PARENT 14 4 15 19
ROOT
ATOM      1  O   UNL     1     116.240 100.305 119.112  1.00  0.00    -0.269 OA
ATOM      2  N   UNL     1     118.428 100.628 118.412  1.00  0.00    -0.264 N 
ATOM      3  C   UNL     1     117.129 101.029 118.670  1.00  0.00     0.279 C 
ATOM      4  H   UNL     1     119.161 101.246 118.080  1.00  0.00     0.191 HD
ENDROOT
BRANCH   3   5
ATOM      5  C   UNL     1     116.908 102.501 118.360  1.00  0.00     0.260 C 
ATOM      6  C   UNL     1     117.754 102.946 117.178  1.00  0.00     0.064 C 
BRANCH   5   7
ATOM      7  O   UNL     1     115.544 102.710 118.035  1.00  0.00    -0.481 OA
BRANCH   7   8
ATOM      8  C   UNL     1     114.721 103.133 119.048  1.00  0.00     0.121 A 
ATOM      9  C   UNL     1     113.356 102.851 119.001  1.00  0.00     0.066 A 
ATOM     10  C   UNL     1     115.250 103.846 120.125  1.00  0.00     0.046 A 
ATOM     11  C   UNL     1     112.519 103.281 120.031  1.00  0.00     0.056 A 
ATOM     12  C   UNL     1     114.413 104.275 121.154  1.00  0.00     0.005 A 
ATOM     13  C   UNL     1     113.047 103.993 121.108  1.00  0.00     0.020 A 
ATOM     14  C   UNL     1     111.121 102.992 119.983  1.00  0.00     0.099 C 
ATOM     15  N   UNL     1     109.985 102.756 119.946  1.00  0.00    -0.192 NA
ENDBRANCH   7   8
ENDBRANCH   5   7
ENDBRANCH   3   5
BRANCH   2  16
ATOM     16  N   UNL     1     118.784  99.326 118.659  1.00  0.00    -0.267 N 
ATOM     17  C   UNL     1     119.959  99.072 119.336  1.00  0.00     0.242 C 
ATOM     18  O   UNL     1     120.741  99.928 119.752  1.00  0.00    -0.273 OA
ATOM     19  H   UNL     1     118.152  98.608 118.320  1.00  0.00     0.191 HD
BRANCH  17  20
ATOM     20  C   UNL     1     120.228  97.592 119.512  1.00  0.00     0.137 C 
BRANCH  20  21
ATOM     21  C   UNL     1     119.180  96.940 120.374  1.00  0.00    -0.038 A 
ATOM     22  C   UNL     1     118.433  95.871 119.876  1.00  0.00     0.013 A 
ATOM     23  C   UNL     1     118.955  97.404 121.667  1.00  0.00     0.005 A 
ATOM     24  C   UNL     1     117.451  95.254 120.667  1.00  0.00    -0.018 A 
ATOM     25  C   UNL     1     117.983  96.801 122.466  1.00  0.00     0.009 A 
ATOM     26  C   UNL     1     117.222  95.725 121.981  1.00  0.00    -0.018 A 
ATOM     27  C   UNL     1     116.690  94.177 120.182  1.00  0.00     0.009 A 
ATOM     28  C   UNL     1     116.240  95.107 122.772  1.00  0.00     0.009 A 
ATOM     29  C   UNL     1     115.718  93.575 120.981  1.00  0.00     0.001 A 
ATOM     30  C   UNL     1     115.494  94.039 122.274  1.00  0.00     0.001 A 
ENDBRANCH  20  21
ENDBRANCH  17  20
ENDBRANCH   2  16
TORSDOF 6
ENDMDL
MODEL 8
REMARK VINA RESULT:      -7.6      6.379      9.154
REMARK SMILES C[C@@H](Oc1cccc(C#N)c1)C(=O)NNC(=O)Cc1ccc2ccccc2c1
REMARK SMILES IDX 13 1 14 2 12 3 2 5 1 6 3 7 4 8 11 9 5 10 8 11 6 12 7 13 9 14
REMARK SMILES IDX 10 15 15 16 16 17 17 18 18 20 19 21 28 22 20 23 27 24 21 25
REMARK SMILES IDX 22 26 26 27 23 28 25 29 24 30
REMARK H PARENT 14 4 15 19
ROOT
ATOM      1  O   UNL     1     116.737  98.468 123.513  1.00  0.00    -0.269 OA
ATOM      2  N   UNL     1     117.773  96.430 123.910  1.00  0.00    -0.264 N 
ATOM      3  C   UNL     1     117.749  97.774 123.584  1.00  0.00     0.279 C 
ATOM      4  H   UNL     1     118.619  95.878 123.999  1.00  0.00     0.191 HD
ENDROOT
BRANCH   3   5
ATOM      5  C   UNL     1     119.142  98.331 123.331  1.00  0.00     0.260 C 
ATOM      6  C   UNL     1     119.633  99.138 124.522  1.00  0.00     0.064 C 
BRANCH   5   7
ATOM      7  O   UNL     1     120.043  97.257 123.120  1.00  0.00    -0.481 OA
BRANCH   7   8
ATOM      8  C   UNL     1     120.452  97.034 121.829  1.00  0.00     0.121 A 
ATOM      9  C   UNL     1     121.664  96.389 121.584  1.00  0.00     0.066 A 
ATOM     10  C   UNL     1     119.656  97.452 120.762  1.00  0.00     0.046 A 
ATOM     11  C   UNL     1     122.081  96.161 120.272  1.00  0.00     0.056 A 
ATOM     12  C   UNL     1     120.072  97.224 119.451  1.00  0.00     0.005 A 
ATOM     13  C   UNL     1     121.284  96.580 119.205  1.00  0.00     0.020 A 
ATOM     14  C   UNL     1     123.322  95.501 120.021  1.00  0.00     0.099 C 
ATOM     15  N   UNL     1     124.330  94.963 119.816  1.00  0.00    -0.192 NA
ENDBRANCH   7   8
ENDBRANCH   5   7
ENDBRANCH   3   5
BRANCH   2  16
ATOM     16  N   UNL     1     116.589  95.791 124.181  1.00  0.00    -0.267 N 
ATOM     17  C   UNL     1     115.975  95.068 123.178  1.00  0.00     0.242 C 
ATOM     18  O   UNL     1     116.400  94.939 122.030  1.00  0.00    -0.273 OA
ATOM     19  H   UNL     1     116.223  95.890 125.122  1.00  0.00     0.191 HD
BRANCH  17  20
ATOM     20  C   UNL     1     114.669  94.441 123.622  1.00  0.00     0.137 C 
BRANCH  20  21
ATOM     21  C   UNL     1     113.484  95.171 123.047  1.00  0.00    -0.038 A 
ATOM     22  C   UNL     1     112.861  96.178 123.785  1.00  0.00     0.013 A 
ATOM     23  C   UNL     1     113.009  94.839 121.781  1.00  0.00     0.005 A 
ATOM     24  C   UNL     1     111.753  96.867 123.264  1.00  0.00    -0.018 A 
ATOM     25  C   UNL     1     111.910  95.513 121.249  1.00  0.00     0.009 A 
ATOM     26  C   UNL     1     111.270  96.529 121.977  1.00  0.00    -0.018 A 
ATOM     27  C   UNL     1     111.114  97.883 123.992  1.00  0.00     0.009 A 
ATOM     28  C   UNL     1     110.163  97.218 121.456  1.00  0.00     0.009 A 
ATOM     29  C   UNL     1     110.014  98.557 123.460  1.00  0.00     0.001 A 
ATOM     30  C   UNL     1     109.540  98.226 122.194  1.00  0.00     0.001 A 
ENDBRANCH  20  21
ENDBRANCH  17  20
ENDBRANCH   2  16
TORSDOF 6
ENDMDL
MODEL 9
REMARK VINA RESULT:      -7.6      6.020      8.426
REMARK SMILES C[C@@H](Oc1cccc(C#N)c1)C(=O)NNC(=O)Cc1ccc2ccccc2c1
REMARK SMILES IDX 13 1 14 2 12 3 2 5 1 6 3 7 4 8 11 9 5 10 8 11 6 12 7 13 9 14
REMARK SMILES IDX 10 15 15 16 16 17 17 18 18 20 19 21 28 22 20 23 27 24 21 25
REMARK SMILES IDX 22 26 26 27 23 28 25 29 24 30
REMARK H PARENT 14 4 15 19
ROOT
ATOM      1  O   UNL     1     101.469  93.228 116.029  1.00  0.00    -0.269 OA
ATOM      2  N   UNL     1     102.334  91.075 116.058  1.00  0.00    -0.264 N 
ATOM      3  C   UNL     1     101.651  92.152 116.594  1.00  0.00     0.279 C 
ATOM      4  H   UNL     1     102.445  90.180 116.523  1.00  0.00     0.191 HD
ENDROOT
BRANCH   3   5
ATOM      5  C   UNL     1     101.115  91.859 117.987  1.00  0.00     0.260 C 
ATOM      6  C   UNL     1     100.235  90.619 117.986  1.00  0.00     0.064 C 
BRANCH   5   7
ATOM      7  O   UNL     1     102.202  91.632 118.868  1.00  0.00    -0.481 OA
BRANCH   7   8
ATOM      8  C   UNL     1     102.922  92.731 119.264  1.00  0.00     0.121 A 
ATOM      9  C   UNL     1     104.275  92.831 118.942  1.00  0.00     0.066 A 
ATOM     10  C   UNL     1     102.300  93.748 119.988  1.00  0.00     0.046 A 
ATOM     11  C   UNL     1     105.007  93.949 119.344  1.00  0.00     0.056 A 
ATOM     12  C   UNL     1     103.032  94.865 120.390  1.00  0.00     0.005 A 
ATOM     13  C   UNL     1     104.385  94.966 120.069  1.00  0.00     0.020 A 
ATOM     14  C   UNL     1     106.393  94.052 119.014  1.00  0.00     0.099 C 
ATOM     15  N   UNL     1     107.519  94.137 118.746  1.00  0.00    -0.192 NA
ENDBRANCH   7   8
ENDBRANCH   5   7
ENDBRANCH   3   5
BRANCH   2  16
ATOM     16  N   UNL     1     102.863  91.185 114.796  1.00  0.00    -0.267 N 
ATOM     17  C   UNL     1     104.227  91.340 114.656  1.00  0.00     0.242 C 
ATOM     18  O   UNL     1     105.038  91.390 115.581  1.00  0.00    -0.273 OA
ATOM     19  H   UNL     1     102.208  91.148 114.023  1.00  0.00     0.191 HD
BRANCH  17  20
ATOM     20  C   UNL     1     104.657  91.470 113.209  1.00  0.00     0.137 C 
BRANCH  20  21
ATOM     21  C   UNL     1     105.130  92.865 112.898  1.00  0.00    -0.038 A 
ATOM     22  C   UNL     1     104.230  93.931 112.932  1.00  0.00     0.013 A 
ATOM     23  C   UNL     1     106.465  93.091 112.574  1.00  0.00     0.005 A 
ATOM     24  C   UNL     1     104.656  95.237 112.642  1.00  0.00    -0.018 A 
ATOM     25  C   UNL     1     106.904  94.382 112.284  1.00  0.00     0.009 A 
ATOM     26  C   UNL     1     106.012  95.467 112.313  1.00  0.00    -0.018 A 
ATOM     27  C   UNL     1     103.763  96.321 112.671  1.00  0.00     0.009 A 
ATOM     28  C   UNL     1     106.438  96.773 112.024  1.00  0.00     0.009 A 
ATOM     29  C   UNL     1     104.203  97.613 112.380  1.00  0.00     0.001 A 
ATOM     30  C   UNL     1     105.537  97.839 112.058  1.00  0.00     0.001 A 
ENDBRANCH  20  21
ENDBRANCH  17  20
ENDBRANCH   2  16
TORSDOF 6
ENDMDL
MODEL 10
REMARK VINA RESULT:      -7.6      5.150     10.177
REMARK SMILES C[C@@H](Oc1cccc(C#N)c1)C(=O)NNC(=O)Cc1ccc2ccccc2c1
REMARK SMILES IDX 13 1 14 2 12 3 2 5 1 6 3 7 4 8 11 9 5 10 8 11 6 12 7 13 9 14
REMARK SMILES IDX 10 15 15 16 16 17 17 18 18 20 19 21 28 22 20 23 27 24 21 25
REMARK SMILES IDX 22 26 26 27 23 28 25 29 24 30
REMARK H PARENT 14 4 15 19
ROOT
ATOM      1  O   UNL     1     115.230  97.475 122.770  1.00  0.00    -0.269 OA
ATOM      2  N   UNL     1     115.136  95.352 123.702  1.00  0.00    -0.264 N 
ATOM      3  C   UNL     1     114.808  96.693 123.620  1.00  0.00     0.279 C 
ATOM      4  H   UNL     1     114.752  94.711 124.388  1.00  0.00     0.191 HD
ENDROOT
BRANCH   3   5
ATOM      5  C   UNL     1     113.830  97.116 124.705  1.00  0.00     0.260 C 
ATOM      6  C   UNL     1     113.486  98.592 124.589  1.00  0.00     0.064 C 
BRANCH   5   7
ATOM      7  O   UNL     1     112.632  96.369 124.571  1.00  0.00    -0.481 OA
BRANCH   7   8
ATOM      8  C   UNL     1     111.832  96.665 123.495  1.00  0.00     0.121 A 
ATOM      9  C   UNL     1     111.922  95.904 122.330  1.00  0.00     0.066 A 
ATOM     10  C   UNL     1     110.929  97.726 123.569  1.00  0.00     0.046 A 
ATOM     11  C   UNL     1     111.108  96.204 121.237  1.00  0.00     0.056 A 
ATOM     12  C   UNL     1     110.116  98.026 122.477  1.00  0.00     0.005 A 
ATOM     13  C   UNL     1     110.205  97.265 121.310  1.00  0.00     0.020 A 
ATOM     14  C   UNL     1     111.199  95.425 120.043  1.00  0.00     0.099 C 
ATOM     15  N   UNL     1     111.272  94.792 119.073  1.00  0.00    -0.192 NA
ENDBRANCH   7   8
ENDBRANCH   5   7
ENDBRANCH   3   5
BRANCH   2  16
ATOM     16  N   UNL     1     115.999  94.820 122.777  1.00  0.00    -0.267 N 
ATOM     17  C   UNL     1     115.479  94.166 121.678  1.00  0.00     0.242 C 
ATOM     18  O   UNL     1     114.281  94.009 121.443  1.00  0.00    -0.273 OA
ATOM     19  H   UNL     1     116.990  94.938 122.957  1.00  0.00     0.191 HD
BRANCH  17  20
ATOM     20  C   UNL     1     116.551  93.614 120.762  1.00  0.00     0.137 C 
BRANCH  20  21
ATOM     21  C   UNL     1     117.671  94.602 120.567  1.00  0.00    -0.038 A 
ATOM     22  C   UNL     1     118.806  94.539 121.376  1.00  0.00     0.013 A 
ATOM     23  C   UNL     1     117.573  95.578 119.579  1.00  0.00     0.005 A 
ATOM     24  C   UNL     1     119.857  95.454 121.208  1.00  0.00    -0.018 A 
ATOM     25  C   UNL     1     118.609  96.495 119.398  1.00  0.00     0.009 A 
ATOM     26  C   UNL     1     119.758  96.446 120.205  1.00  0.00    -0.018 A 
ATOM     27  C   UNL     1     121.007  95.405 122.014  1.00  0.00     0.009 A 
ATOM     28  C   UNL     1     120.810  97.361 120.036  1.00  0.00     0.009 A 
ATOM     29  C   UNL     1     122.042  96.322 121.833  1.00  0.00     0.001 A 
ATOM     30  C   UNL     1     121.945  97.298 120.846  1.00  0.00     0.001 A 
ENDBRANCH  20  21
ENDBRANCH  17  20
ENDBRANCH   2  16
TORSDOF 6
ENDMDL
MODEL 11
REMARK VINA RESULT:      -7.5      6.433     10.562
REMARK SMILES C[C@@H](Oc1cccc(C#N)c1)C(=O)NNC(=O)Cc1ccc2ccccc2c1
REMARK SMILES IDX 13 1 14 2 12 3 2 5 1 6 3 7 4 8 11 9 5 10 8 11 6 12 7 13 9 14
REMARK SMILES IDX 10 15 15 16 16 17 17 18 18 20 19 21 28 22 20 23 27 24 21 25
REMARK SMILES IDX 22 26 26 27 23 28 25 29 24 30
REMARK H PARENT 14 4 15 19
ROOT
ATOM      1  O   UNL     1     111.796  95.753 121.299  1.00  0.00    -0.269 OA
ATOM      2  N   UNL     1     113.680  96.199 122.577  1.00  0.00    -0.264 N 
ATOM      3  C   UNL     1     112.336  96.289 122.264  1.00  0.00     0.279 C 
ATOM      4  H   UNL     1     114.105  96.618 123.398  1.00  0.00     0.191 HD
ENDROOT
BRANCH   3   5
ATOM      5  C   UNL     1     111.564  97.127 123.272  1.00  0.00     0.260 C 
ATOM      6  C   UNL     1     111.781  96.619 124.688  1.00  0.00     0.064 C 
BRANCH   5   7
ATOM      7  O   UNL     1     112.015  98.469 123.207  1.00  0.00    -0.481 OA
BRANCH   7   8
ATOM      8  C   UNL     1     111.363  99.303 122.334  1.00  0.00     0.121 A 
ATOM      9  C   UNL     1     112.066  99.912 121.295  1.00  0.00     0.066 A 
ATOM     10  C   UNL     1     109.996  99.540 122.485  1.00  0.00     0.046 A 
ATOM     11  C   UNL     1     111.403 100.760 120.407  1.00  0.00     0.056 A 
ATOM     12  C   UNL     1     109.334 100.388 121.597  1.00  0.00     0.005 A 
ATOM     13  C   UNL     1     110.036 100.998 120.558  1.00  0.00     0.020 A 
ATOM     14  C   UNL     1     112.123 101.384 119.343  1.00  0.00     0.099 C 
ATOM     15  N   UNL     1     112.707 101.891 118.477  1.00  0.00    -0.192 NA
ENDBRANCH   7   8
ENDBRANCH   5   7
ENDBRANCH   3   5
BRANCH   2  16
ATOM     16  N   UNL     1     114.504  95.460 121.766  1.00  0.00    -0.267 N 
ATOM     17  C   UNL     1     115.640  94.892 122.307  1.00  0.00     0.242 C 
ATOM     18  O   UNL     1     115.993  94.988 123.482  1.00  0.00    -0.273 OA
ATOM     19  H   UNL     1     114.228  95.373 120.794  1.00  0.00     0.191 HD
BRANCH  17  20
ATOM     20  C   UNL     1     116.457  94.129 121.286  1.00  0.00     0.137 C 
BRANCH  20  21
ATOM     21  C   UNL     1     117.687  94.896 120.879  1.00  0.00    -0.038 A 
ATOM     22  C   UNL     1     118.846  94.818 121.652  1.00  0.00     0.013 A 
ATOM     23  C   UNL     1     117.667  95.685 119.732  1.00  0.00     0.005 A 
ATOM     24  C   UNL     1     120.000  95.530 121.287  1.00  0.00    -0.018 A 
ATOM     25  C   UNL     1     118.804  96.398 119.355  1.00  0.00     0.009 A 
ATOM     26  C   UNL     1     119.979  96.332 120.121  1.00  0.00    -0.018 A 
ATOM     27  C   UNL     1     121.175  95.463 122.053  1.00  0.00     0.009 A 
ATOM     28  C   UNL     1     121.134  97.043 119.756  1.00  0.00     0.009 A 
ATOM     29  C   UNL     1     122.313  96.177 121.676  1.00  0.00     0.001 A 
ATOM     30  C   UNL     1     122.293  96.964 120.529  1.00  0.00     0.001 A 
ENDBRANCH  20  21
ENDBRANCH  17  20
ENDBRANCH   2  16
TORSDOF 6
ENDMDL
MODEL 12
REMARK VINA RESULT:      -7.5      8.093     11.513
REMARK SMILES C[C@@H](Oc1cccc(C#N)c1)C(=O)NNC(=O)Cc1ccc2ccccc2c1
REMARK SMILES IDX 13 1 14 2 12 3 2 5 1 6 3 7 4 8 11 9 5 10 8 11 6 12 7 13 9 14
REMARK SMILES IDX 10 15 15 16 16 17 17 18 18 20 19 21 28 22 20 23 27 24 21 25
REMARK SMILES IDX 22 26 26 27 23 28 25 29 24 30
REMARK H PARENT 14 4 15 19
ROOT
ATOM      1  O   UNL     1     118.112 102.989 119.252  1.00  0.00    -0.269 OA
ATOM      2  N   UNL     1     117.352 101.330 117.820  1.00  0.00    -0.264 N 
ATOM      3  C   UNL     1     117.393 102.616 118.328  1.00  0.00     0.279 C 
ATOM      4  H   UNL     1     116.779 101.044 117.033  1.00  0.00     0.191 HD
ENDROOT
BRANCH   3   5
ATOM      5  C   UNL     1     116.446 103.555 117.597  1.00  0.00     0.260 C 
ATOM      6  C   UNL     1     116.876 103.752 116.152  1.00  0.00     0.064 C 
BRANCH   5   7
ATOM      7  O   UNL     1     115.142 102.999 117.600  1.00  0.00    -0.481 OA
BRANCH   7   8
ATOM      8  C   UNL     1     114.354 103.268 118.692  1.00  0.00     0.121 A 
ATOM      9  C   UNL     1     113.069 102.733 118.772  1.00  0.00     0.066 A 
ATOM     10  C   UNL     1     114.840 104.076 119.721  1.00  0.00     0.046 A 
ATOM     11  C   UNL     1     112.268 103.006 119.881  1.00  0.00     0.056 A 
ATOM     12  C   UNL     1     114.040 104.348 120.829  1.00  0.00     0.005 A 
ATOM     13  C   UNL     1     112.754 103.814 120.910  1.00  0.00     0.020 A 
ATOM     14  C   UNL     1     110.951 102.459 119.964  1.00  0.00     0.099 C 
ATOM     15  N   UNL     1     109.881 102.014 120.033  1.00  0.00    -0.192 NA
ENDBRANCH   7   8
ENDBRANCH   5   7
ENDBRANCH   3   5
BRANCH   2  16
ATOM     16  N   UNL     1     118.166 100.371 118.369  1.00  0.00    -0.267 N 
ATOM     17  C   UNL     1     117.920  99.043 118.084  1.00  0.00     0.242 C 
ATOM     18  O   UNL     1     117.014  98.625 117.364  1.00  0.00    -0.273 OA
ATOM     19  H   UNL     1     118.916 100.699 118.968  1.00  0.00     0.191 HD
BRANCH  17  20
ATOM     20  C   UNL     1     118.885  98.106 118.780  1.00  0.00     0.137 C 
BRANCH  20  21
ATOM     21  C   UNL     1     118.182  97.241 119.792  1.00  0.00    -0.038 A 
ATOM     22  C   UNL     1     117.691  97.805 120.971  1.00  0.00     0.013 A 
ATOM     23  C   UNL     1     118.021  95.879 119.553  1.00  0.00     0.005 A 
ATOM     24  C   UNL     1     117.035  97.011 121.925  1.00  0.00    -0.018 A 
ATOM     25  C   UNL     1     117.371  95.077 120.490  1.00  0.00     0.009 A 
ATOM     26  C   UNL     1     116.872  95.627 121.682  1.00  0.00    -0.018 A 
ATOM     27  C   UNL     1     116.535  97.563 123.117  1.00  0.00     0.009 A 
ATOM     28  C   UNL     1     116.215  94.835 122.636  1.00  0.00     0.009 A 
ATOM     29  C   UNL     1     115.886  96.760 124.055  1.00  0.00     0.001 A 
ATOM     30  C   UNL     1     115.725  95.399 123.815  1.00  0.00     0.001 A 
ENDBRANCH  20  21
ENDBRANCH  17  20
ENDBRANCH   2  16
TORSDOF 6
ENDMDL
MODEL 13
REMARK VINA RESULT:      -7.5      8.899     10.662
REMARK SMILES C[C@@H](Oc1cccc(C#N)c1)C(=O)NNC(=O)Cc1ccc2ccccc2c1
REMARK SMILES IDX 13 1 14 2 12 3 2 5 1 6 3 7 4 8 11 9 5 10 8 11 6 12 7 13 9 14
REMARK SMILES IDX 10 15 15 16 16 17 17 18 18 20 19 21 28 22 20 23 27 24 21 25
REMARK SMILES IDX 22 26 26 27 23 28 25 29 24 30
REMARK H PARENT 14 4 15 19
ROOT
ATOM      1  O   UNL     1     116.610  99.152 118.729  1.00  0.00    -0.269 OA
ATOM      2  N   UNL     1     117.926 100.992 118.215  1.00  0.00    -0.264 N 
ATOM      3  C   UNL     1     117.712  99.683 118.606  1.00  0.00     0.279 C 
ATOM      4  H   UNL     1     118.843 101.406 118.083  1.00  0.00     0.191 HD
ENDROOT
BRANCH   3   5
ATOM      5  C   UNL     1     119.012  98.936 118.860  1.00  0.00     0.260 C 
ATOM      6  C   UNL     1     119.568  99.256 120.238  1.00  0.00     0.064 C 
BRANCH   5   7
ATOM      7  O   UNL     1     118.771  97.541 118.791  1.00  0.00    -0.481 OA
BRANCH   7   8
ATOM      8  C   UNL     1     119.435  96.750 119.694  1.00  0.00     0.121 A 
ATOM      9  C   UNL     1     120.822  96.620 119.620  1.00  0.00     0.066 A 
ATOM     10  C   UNL     1     118.723  96.076 120.687  1.00  0.00     0.046 A 
ATOM     11  C   UNL     1     121.497  95.816 120.539  1.00  0.00     0.056 A 
ATOM     12  C   UNL     1     119.398  95.272 121.605  1.00  0.00     0.005 A 
ATOM     13  C   UNL     1     120.785  95.141 121.531  1.00  0.00     0.020 A 
ATOM     14  C   UNL     1     122.917  95.682 120.463  1.00  0.00     0.099 C 
ATOM     15  N   UNL     1     124.072  95.575 120.403  1.00  0.00    -0.192 NA
ENDBRANCH   7   8
ENDBRANCH   5   7
ENDBRANCH   3   5
BRANCH   2  16
ATOM     16  N   UNL     1     116.844 101.788 117.933  1.00  0.00    -0.267 N 
ATOM     17  C   UNL     1     117.040 102.951 117.215  1.00  0.00     0.242 C 
ATOM     18  O   UNL     1     118.123 103.352 116.791  1.00  0.00    -0.273 OA
ATOM     19  H   UNL     1     115.944 101.473 118.279  1.00  0.00     0.191 HD
BRANCH  17  20
ATOM     20  C   UNL     1     115.759 103.732 117.005  1.00  0.00     0.137 C 
BRANCH  20  21
ATOM     21  C   UNL     1     114.955 103.823 118.274  1.00  0.00    -0.038 A 
ATOM     22  C   UNL     1     113.677 103.266 118.330  1.00  0.00     0.013 A 
ATOM     23  C   UNL     1     115.484 104.465 119.390  1.00  0.00     0.005 A 
ATOM     24  C   UNL     1     112.912 103.344 119.506  1.00  0.00    -0.018 A 
ATOM     25  C   UNL     1     114.738 104.552 120.565  1.00  0.00     0.009 A 
ATOM     26  C   UNL     1     113.450 103.997 120.640  1.00  0.00    -0.018 A 
ATOM     27  C   UNL     1     111.624 102.788 119.581  1.00  0.00     0.009 A 
ATOM     28  C   UNL     1     112.686 104.074 121.815  1.00  0.00     0.009 A 
ATOM     29  C   UNL     1     110.878 102.875 120.756  1.00  0.00     0.001 A 
ATOM     30  C   UNL     1     111.408 103.516 121.872  1.00  0.00     0.001 A 
ENDBRANCH  20  21
ENDBRANCH  17  20
ENDBRANCH   2  16
TORSDOF 6
ENDMDL
MODEL 14
REMARK VINA RESULT:      -7.5      2.229      4.194
REMARK SMILES C[C@@H](Oc1cccc(C#N)c1)C(=O)NNC(=O)Cc1ccc2ccccc2c1
REMARK SMILES IDX 13 1 14 2 12 3 2 5 1 6 3 7 4 8 11 9 5 10 8 11 6 12 7 13 9 14
REMARK SMILES IDX 10 15 15 16 16 17 17 18 18 20 19 21 28 22 20 23 27 24 21 25
REMARK SMILES IDX 22 26 26 27 23 28 25 29 24 30
REMARK H PARENT 14 4 15 19
ROOT
ATOM      1  O   UNL     1     111.045  94.504 119.077  1.00  0.00    -0.269 OA
ATOM      2  N   UNL     1     109.028  95.044 120.090  1.00  0.00    -0.264 N 
ATOM      3  C   UNL     1     110.403  95.093 119.945  1.00  0.00     0.279 C 
ATOM      4  H   UNL     1     108.509  95.564 120.789  1.00  0.00     0.191 HD
ENDROOT
BRANCH   3   5
ATOM      5  C   UNL     1     111.061  95.987 120.984  1.00  0.00     0.260 C 
ATOM      6  C   UNL     1     112.332  95.352 121.527  1.00  0.00     0.064 C 
BRANCH   5   7
ATOM      7  O   UNL     1     111.403  97.225 120.386  1.00  0.00    -0.481 OA
BRANCH   7   8
ATOM      8  C   UNL     1     110.922  98.361 120.988  1.00  0.00     0.121 A 
ATOM      9  C   UNL     1     109.934  98.265 121.967  1.00  0.00     0.066 A 
ATOM     10  C   UNL     1     111.422  99.611 120.620  1.00  0.00     0.046 A 
ATOM     11  C   UNL     1     109.445  99.420 122.580  1.00  0.00     0.056 A 
ATOM     12  C   UNL     1     110.933 100.764 121.232  1.00  0.00     0.005 A 
ATOM     13  C   UNL     1     109.944 100.670 122.211  1.00  0.00     0.020 A 
ATOM     14  C   UNL     1     108.433  99.323 123.583  1.00  0.00     0.099 C 
ATOM     15  N   UNL     1     107.612  99.244 124.400  1.00  0.00    -0.192 NA
ENDBRANCH   7   8
ENDBRANCH   5   7
ENDBRANCH   3   5
BRANCH   2  16
ATOM     16  N   UNL     1     108.293  94.288 119.211  1.00  0.00    -0.267 N 
ATOM     17  C   UNL     1     107.015  94.697 118.885  1.00  0.00     0.242 C 
ATOM     18  O   UNL     1     106.457  95.704 119.321  1.00  0.00    -0.273 OA
ATOM     19  H   UNL     1     108.738  93.453 118.845  1.00  0.00     0.191 HD
BRANCH  17  20
ATOM     20  C   UNL     1     106.323  93.751 117.926  1.00  0.00     0.137 C 
BRANCH  20  21
ATOM     21  C   UNL     1     106.234  94.336 116.542  1.00  0.00    -0.038 A 
ATOM     22  C   UNL     1     106.854  93.690 115.471  1.00  0.00     0.013 A 
ATOM     23  C   UNL     1     105.536  95.522 116.331  1.00  0.00     0.005 A 
ATOM     24  C   UNL     1     106.781  94.225 114.174  1.00  0.00    -0.018 A 
ATOM     25  C   UNL     1     105.455  96.066 115.049  1.00  0.00     0.009 A 
ATOM     26  C   UNL     1     106.072  95.430 113.960  1.00  0.00    -0.018 A 
ATOM     27  C   UNL     1     107.399  93.588 113.085  1.00  0.00     0.009 A 
ATOM     28  C   UNL     1     106.000  95.963 112.663  1.00  0.00     0.009 A 
ATOM     29  C   UNL     1     107.317  94.133 111.803  1.00  0.00     0.001 A 
ATOM     30  C   UNL     1     106.619  95.317 111.592  1.00  0.00     0.001 A 
ENDBRANCH  20  21
ENDBRANCH  17  20
ENDBRANCH   2  16
TORSDOF 6
ENDMDL
MODEL 15
REMARK VINA RESULT:      -7.5      8.455     10.876
REMARK SMILES C[C@@H](Oc1cccc(C#N)c1)C(=O)NNC(=O)Cc1ccc2ccccc2c1
REMARK SMILES IDX 13 1 14 2 12 3 2 5 1 6 3 7 4 8 11 9 5 10 8 11 6 12 7 13 9 14
REMARK SMILES IDX 10 15 15 16 16 17 17 18 18 20 19 21 28 22 20 23 27 24 21 25
REMARK SMILES IDX 22 26 26 27 23 28 25 29 24 30
REMARK H PARENT 14 4 15 19
ROOT
ATOM      1  O   UNL     1     119.539  98.527 119.245  1.00  0.00    -0.269 OA
ATOM      2  N   UNL     1     119.710  98.671 121.554  1.00  0.00    -0.264 N 
ATOM      3  C   UNL     1     119.670  97.998 120.347  1.00  0.00     0.279 C 
ATOM      4  H   UNL     1     119.854  98.223 122.453  1.00  0.00     0.191 HD
ENDROOT
BRANCH   3   5
ATOM      5  C   UNL     1     119.827  96.495 120.518  1.00  0.00     0.260 C 
ATOM      6  C   UNL     1     121.293  96.104 120.614  1.00  0.00     0.064 C 
BRANCH   5   7
ATOM      7  O   UNL     1     119.181  96.091 121.714  1.00  0.00    -0.481 OA
BRANCH   7   8
ATOM      8  C   UNL     1     118.011  95.385 121.581  1.00  0.00     0.121 A 
ATOM      9  C   UNL     1     117.069  95.399 122.608  1.00  0.00     0.066 A 
ATOM     10  C   UNL     1     117.766  94.655 120.417  1.00  0.00     0.046 A 
ATOM     11  C   UNL     1     115.879  94.682 122.473  1.00  0.00     0.056 A 
ATOM     12  C   UNL     1     116.577  93.938 120.282  1.00  0.00     0.005 A 
ATOM     13  C   UNL     1     115.634  93.951 121.310  1.00  0.00     0.020 A 
ATOM     14  C   UNL     1     114.913  94.695 123.525  1.00  0.00     0.099 C 
ATOM     15  N   UNL     1     114.127  94.706 124.379  1.00  0.00    -0.192 NA
ENDBRANCH   7   8
ENDBRANCH   5   7
ENDBRANCH   3   5
BRANCH   2  16
ATOM     16  N   UNL     1     119.597 100.038 121.558  1.00  0.00    -0.267 N 
ATOM     17  C   UNL     1     118.401 100.609 121.945  1.00  0.00     0.242 C 
ATOM     18  O   UNL     1     117.398  99.989 122.298  1.00  0.00    -0.273 OA
ATOM     19  H   UNL     1     120.414 100.564 121.267  1.00  0.00     0.191 HD
BRANCH  17  20
ATOM     20  C   UNL     1     118.422 102.122 121.875  1.00  0.00     0.137 C 
BRANCH  20  21
ATOM     21  C   UNL     1     117.536 102.635 120.772  1.00  0.00    -0.038 A 
ATOM     22  C   UNL     1     117.970 102.583 119.446  1.00  0.00     0.013 A 
ATOM     23  C   UNL     1     116.284 103.162 121.074  1.00  0.00     0.005 A 
ATOM     24  C   UNL     1     117.155 103.060 118.407  1.00  0.00    -0.018 A 
ATOM     25  C   UNL     1     115.462 103.640 120.053  1.00  0.00     0.009 A 
ATOM     26  C   UNL     1     115.883 103.596 118.714  1.00  0.00    -0.018 A 
ATOM     27  C   UNL     1     117.576 103.015 117.067  1.00  0.00     0.009 A 
ATOM     28  C   UNL     1     115.068 104.072 117.674  1.00  0.00     0.009 A 
ATOM     29  C   UNL     1     116.754 103.493 116.047  1.00  0.00     0.001 A 
ATOM     30  C   UNL     1     115.502 104.020 116.349  1.00  0.00     0.001 A 
ENDBRANCH  20  21
ENDBRANCH  17  20
ENDBRANCH   2  16
TORSDOF 6
ENDMDL
