MODEL 1
REMARK VINA RESULT:     -11.0      0.000      0.000
REMARK SMILES Cc1cc(=O)c(C(=O)N[C@@H]2CCCc3c2cnn3Cc2ccccc2)nn1-c1ccccc1Cl
REMARK SMILES IDX 8 1 9 2 7 3 6 5 27 6 26 7 2 8 3 9 4 10 5 11 1 12 28 13 33 14
REMARK SMILES IDX 32 15 29 16 31 17 30 18 34 19 10 20 11 21 15 22 12 23 14 24
REMARK SMILES IDX 16 25 13 26 18 27 17 28 19 29 20 30 21 31 25 32 22 33 24 34
REMARK SMILES IDX 23 35
REMARK H PARENT 9 4
ROOT
ATOM      1  O   UNL     1     108.116 113.993  79.390  1.00  0.00    -0.267 OA
ATOM      2  N   UNL     1     110.150 112.878  79.044  1.00  0.00    -0.344 N 
ATOM      3  C   UNL     1     108.825 113.176  78.824  1.00  0.00     0.276 C 
ATOM      4  H   UNL     1     110.598 112.185  78.450  1.00  0.00     0.164 HD
ENDROOT
BRANCH   3   5
ATOM      5  C   UNL     1     108.213 112.366  77.734  1.00  0.00     0.196 A 
ATOM      6  N   UNL     1     108.239 111.808  75.506  1.00  0.00    -0.236 N 
ATOM      7  N   UNL     1     108.750 112.522  76.566  1.00  0.00    -0.158 NA
ATOM      8  C   UNL     1     107.263 110.813  75.655  1.00  0.00     0.044 A 
ATOM      9  C   UNL     1     106.656 110.585  76.832  1.00  0.00     0.078 A 
ATOM     10  C   UNL     1     107.061 111.432  77.956  1.00  0.00     0.213 A 
ATOM     11  O   UNL     1     106.521 111.395  79.050  1.00  0.00    -0.287 OA
ATOM     12  C   UNL     1     106.931 109.887  74.511  1.00  0.00     0.067 C 
BRANCH   6  13
ATOM     13  C   UNL     1     108.808 112.207  74.257  1.00  0.00     0.083 A 
ATOM     14  C   UNL     1     110.052 111.734  73.842  1.00  0.00     0.066 A 
ATOM     15  C   UNL     1     110.580 112.140  72.618  1.00  0.00     0.023 A 
ATOM     16  C   UNL     1     108.091 113.087  73.446  1.00  0.00     0.030 A 
ATOM     17  C   UNL     1     109.865 113.021  71.807  1.00  0.00     0.002 A 
ATOM     18  C   UNL     1     108.620 113.494  72.220  1.00  0.00     0.002 A 
ATOM     19  Cl  UNL     1     110.972 110.643  74.815  1.00  0.00    -0.082 Cl
ENDBRANCH   6  13
ENDBRANCH   3   5
BRANCH   2  20
ATOM     20  C   UNL     1     110.948 113.538  80.051  1.00  0.00     0.116 C 
ATOM     21  C   UNL     1     110.881 115.078  79.895  1.00  0.00     0.030 C 
ATOM     22  C   UNL     1     112.351 113.066  79.925  1.00  0.00     0.016 A 
ATOM     23  C   UNL     1     111.760 115.600  78.736  1.00  0.00     0.009 C 
ATOM     24  C   UNL     1     113.359 113.838  79.395  1.00  0.00     0.044 A 
ATOM     25  C   UNL     1     112.985 111.854  80.261  1.00  0.00     0.141 A 
ATOM     26  C   UNL     1     113.248 115.234  78.912  1.00  0.00     0.056 C 
ATOM     27  N   UNL     1     114.489 113.081  79.437  1.00  0.00    -0.265 N 
ATOM     28  N   UNL     1     114.289 111.856  79.963  1.00  0.00    -0.181 NA
BRANCH  27  29
ATOM     29  C   UNL     1     115.813 113.462  79.009  1.00  0.00     0.180 C 
BRANCH  29  30
ATOM     30  C   UNL     1     116.693 113.936  80.139  1.00  0.00    -0.027 A 
ATOM     31  C   UNL     1     116.349 115.082  80.856  1.00  0.00     0.005 A 
ATOM     32  C   UNL     1     117.849 113.230  80.467  1.00  0.00     0.005 A 
ATOM     33  C   UNL     1     117.162 115.522  81.901  1.00  0.00     0.000 A 
ATOM     34  C   UNL     1     118.662 113.668  81.512  1.00  0.00     0.000 A 
ATOM     35  C   UNL     1     118.319 114.815  82.229  1.00  0.00     0.000 A 
ENDBRANCH  29  30
ENDBRANCH  27  29
ENDBRANCH   2  20
TORSDOF 5
ENDMDL
MODEL 2
REMARK VINA RESULT:     -10.5      1.120      1.604
REMARK SMILES Cc1cc(=O)c(C(=O)N[C@@H]2CCCc3c2cnn3Cc2ccccc2)nn1-c1ccccc1Cl
REMARK SMILES IDX 8 1 9 2 7 3 6 5 27 6 26 7 2 8 3 9 4 10 5 11 1 12 28 13 33 14
REMARK SMILES IDX 32 15 29 16 31 17 30 18 34 19 10 20 11 21 15 22 12 23 14 24
REMARK SMILES IDX 16 25 13 26 18 27 17 28 19 29 20 30 21 31 25 32 22 33 24 34
REMARK SMILES IDX 23 35
REMARK H PARENT 9 4
ROOT
ATOM      1  O   UNL     1     109.692 111.267  79.887  1.00  0.00    -0.267 OA
ATOM      2  N   UNL     1     109.983 113.339  78.826  1.00  0.00    -0.344 N 
ATOM      3  C   UNL     1     109.521 112.049  78.966  1.00  0.00     0.276 C 
ATOM      4  H   UNL     1     109.713 113.865  77.999  1.00  0.00     0.164 HD
ENDROOT
BRANCH   3   5
ATOM      5  C   UNL     1     108.705 111.588  77.809  1.00  0.00     0.196 A 
ATOM      6  N   UNL     1     108.627 111.192  75.547  1.00  0.00    -0.236 N 
ATOM      7  N   UNL     1     109.315 111.604  76.665  1.00  0.00    -0.158 NA
ATOM      8  C   UNL     1     107.348 110.620  75.604  1.00  0.00     0.044 A 
ATOM      9  C   UNL     1     106.647 110.564  76.749  1.00  0.00     0.078 A 
ATOM     10  C   UNL     1     107.283 111.134  77.939  1.00  0.00     0.213 A 
ATOM     11  O   UNL     1     106.718 111.234  79.016  1.00  0.00    -0.287 OA
ATOM     12  C   UNL     1     106.751 109.951  74.390  1.00  0.00     0.067 C 
BRANCH   6  13
ATOM     13  C   UNL     1     109.358 111.426  74.342  1.00  0.00     0.083 A 
ATOM     14  C   UNL     1     109.474 112.706  73.800  1.00  0.00     0.066 A 
ATOM     15  C   UNL     1     110.194 112.903  72.623  1.00  0.00     0.023 A 
ATOM     16  C   UNL     1     109.965 110.343  73.706  1.00  0.00     0.030 A 
ATOM     17  C   UNL     1     110.800 111.820  71.986  1.00  0.00     0.002 A 
ATOM     18  C   UNL     1     110.686 110.540  72.528  1.00  0.00     0.002 A 
ATOM     19  Cl  UNL     1     108.739 114.075  74.556  1.00  0.00    -0.082 Cl
ENDBRANCH   6  13
ENDBRANCH   3   5
BRANCH   2  20
ATOM     20  C   UNL     1     110.793 113.996  79.824  1.00  0.00     0.116 C 
ATOM     21  C   UNL     1     110.756 115.535  79.649  1.00  0.00     0.030 C 
ATOM     22  C   UNL     1     112.188 113.495  79.703  1.00  0.00     0.016 A 
ATOM     23  C   UNL     1     111.645 116.025  78.482  1.00  0.00     0.009 C 
ATOM     24  C   UNL     1     113.210 114.241  79.163  1.00  0.00     0.044 A 
ATOM     25  C   UNL     1     112.797 112.276  80.054  1.00  0.00     0.141 A 
ATOM     26  C   UNL     1     113.126 115.633  78.663  1.00  0.00     0.056 C 
ATOM     27  N   UNL     1     114.325 113.462  79.214  1.00  0.00    -0.265 N 
ATOM     28  N   UNL     1     114.101 112.249  79.756  1.00  0.00    -0.181 NA
BRANCH  27  29
ATOM     29  C   UNL     1     115.656 113.813  78.780  1.00  0.00     0.180 C 
BRANCH  29  30
ATOM     30  C   UNL     1     116.586 114.149  79.920  1.00  0.00    -0.027 A 
ATOM     31  C   UNL     1     117.751 113.406  80.111  1.00  0.00     0.005 A 
ATOM     32  C   UNL     1     116.281 115.202  80.781  1.00  0.00     0.005 A 
ATOM     33  C   UNL     1     118.611 113.717  81.165  1.00  0.00     0.000 A 
ATOM     34  C   UNL     1     117.141 115.513  81.835  1.00  0.00     0.000 A 
ATOM     35  C   UNL     1     118.306 114.770  82.027  1.00  0.00     0.000 A 
ENDBRANCH  29  30
ENDBRANCH  27  29
ENDBRANCH   2  20
TORSDOF 5
ENDMDL
MODEL 3
REMARK VINA RESULT:     -10.3      2.204      9.104
REMARK SMILES Cc1cc(=O)c(C(=O)N[C@@H]2CCCc3c2cnn3Cc2ccccc2)nn1-c1ccccc1Cl
REMARK SMILES IDX 8 1 9 2 7 3 6 5 27 6 26 7 2 8 3 9 4 10 5 11 1 12 28 13 33 14
REMARK SMILES IDX 32 15 29 16 31 17 30 18 34 19 10 20 11 21 15 22 12 23 14 24
REMARK SMILES IDX 16 25 13 26 18 27 17 28 19 29 20 30 21 31 25 32 22 33 24 34
REMARK SMILES IDX 23 35
REMARK H PARENT 9 4
ROOT
ATOM      1  O   UNL     1     111.536 113.483  80.738  1.00  0.00    -0.267 OA
ATOM      2  N   UNL     1     111.217 113.034  78.458  1.00  0.00    -0.344 N 
ATOM      3  C   UNL     1     111.795 113.632  79.555  1.00  0.00     0.276 C 
ATOM      4  H   UNL     1     111.585 113.251  77.535  1.00  0.00     0.164 HD
ENDROOT
BRANCH   3   5
ATOM      5  C   UNL     1     112.883 114.585  79.200  1.00  0.00     0.196 A 
ATOM      6  N   UNL     1     115.106 115.130  79.406  1.00  0.00    -0.236 N 
ATOM      7  N   UNL     1     114.048 114.297  79.689  1.00  0.00    -0.158 NA
ATOM      8  C   UNL     1     115.017 116.195  78.498  1.00  0.00     0.044 A 
ATOM      9  C   UNL     1     113.848 116.561  77.945  1.00  0.00     0.078 A 
ATOM     10  C   UNL     1     112.665 115.794  78.340  1.00  0.00     0.213 A 
ATOM     11  O   UNL     1     111.533 116.083  77.988  1.00  0.00    -0.287 OA
ATOM     12  C   UNL     1     116.262 116.909  78.030  1.00  0.00     0.067 C 
BRANCH   6  13
ATOM     13  C   UNL     1     116.279 114.790  80.147  1.00  0.00     0.083 A 
ATOM     14  C   UNL     1     117.177 113.829  79.684  1.00  0.00     0.066 A 
ATOM     15  C   UNL     1     118.313 113.519  80.429  1.00  0.00     0.023 A 
ATOM     16  C   UNL     1     116.520 115.443  81.356  1.00  0.00     0.030 A 
ATOM     17  C   UNL     1     118.554 114.171  81.638  1.00  0.00     0.002 A 
ATOM     18  C   UNL     1     117.658 115.134  82.102  1.00  0.00     0.002 A 
ATOM     19  Cl  UNL     1     116.916 112.997  78.192  1.00  0.00    -0.082 Cl
ENDBRANCH   6  13
ENDBRANCH   3   5
BRANCH   2  20
ATOM     20  C   UNL     1     110.143 112.074  78.561  1.00  0.00     0.116 C 
ATOM     21  C   UNL     1     110.657 110.633  78.317  1.00  0.00     0.030 C 
ATOM     22  C   UNL     1     109.099 112.427  77.564  1.00  0.00     0.016 A 
ATOM     23  C   UNL     1     110.897 110.330  76.820  1.00  0.00     0.009 C 
ATOM     24  C   UNL     1     108.896 111.716  76.404  1.00  0.00     0.044 A 
ATOM     25  C   UNL     1     108.136 113.453  77.513  1.00  0.00     0.141 A 
ATOM     26  C   UNL     1     109.620 110.498  75.971  1.00  0.00     0.056 C 
ATOM     27  N   UNL     1     107.874 112.329  75.749  1.00  0.00    -0.265 N 
ATOM     28  N   UNL     1     107.387 113.401  76.406  1.00  0.00    -0.181 NA
BRANCH  27  29
ATOM     29  C   UNL     1     107.284 111.940  74.490  1.00  0.00     0.180 C 
BRANCH  29  30
ATOM     30  C   UNL     1     108.167 112.232  73.302  1.00  0.00    -0.027 A 
ATOM     31  C   UNL     1     108.587 113.538  73.049  1.00  0.00     0.005 A 
ATOM     32  C   UNL     1     108.564 111.197  72.456  1.00  0.00     0.005 A 
ATOM     33  C   UNL     1     109.402 113.809  71.951  1.00  0.00     0.000 A 
ATOM     34  C   UNL     1     109.381 111.467  71.358  1.00  0.00     0.000 A 
ATOM     35  C   UNL     1     109.800 112.773  71.105  1.00  0.00     0.000 A 
ENDBRANCH  29  30
ENDBRANCH  27  29
ENDBRANCH   2  20
TORSDOF 5
ENDMDL
MODEL 4
REMARK VINA RESULT:     -10.1      2.597      9.511
REMARK SMILES Cc1cc(=O)c(C(=O)N[C@@H]2CCCc3c2cnn3Cc2ccccc2)nn1-c1ccccc1Cl
REMARK SMILES IDX 8 1 9 2 7 3 6 5 27 6 26 7 2 8 3 9 4 10 5 11 1 12 28 13 33 14
REMARK SMILES IDX 32 15 29 16 31 17 30 18 34 19 10 20 11 21 15 22 12 23 14 24
REMARK SMILES IDX 16 25 13 26 18 27 17 28 19 29 20 30 21 31 25 32 22 33 24 34
REMARK SMILES IDX 23 35
REMARK H PARENT 9 4
ROOT
ATOM      1  O   UNL     1     111.689 112.245  80.129  1.00  0.00    -0.267 OA
ATOM      2  N   UNL     1     111.378 112.164  77.805  1.00  0.00    -0.344 N 
ATOM      3  C   UNL     1     111.875 112.651  78.993  1.00  0.00     0.276 C 
ATOM      4  H   UNL     1     111.667 112.609  76.938  1.00  0.00     0.164 HD
ENDROOT
BRANCH   3   5
ATOM      5  C   UNL     1     112.756 113.839  78.819  1.00  0.00     0.196 A 
ATOM      6  N   UNL     1     114.838 114.754  79.147  1.00  0.00    -0.236 N 
ATOM      7  N   UNL     1     113.962 113.700  79.270  1.00  0.00    -0.158 NA
ATOM      8  C   UNL     1     114.533 115.919  78.428  1.00  0.00     0.044 A 
ATOM      9  C   UNL     1     113.307 116.143  77.927  1.00  0.00     0.078 A 
ATOM     10  C   UNL     1     112.297 115.111  78.170  1.00  0.00     0.213 A 
ATOM     11  O   UNL     1     111.125 115.234  77.854  1.00  0.00    -0.287 OA
ATOM     12  C   UNL     1     115.612 116.924  78.104  1.00  0.00     0.067 C 
BRANCH   6  13
ATOM     13  C   UNL     1     116.067 114.525  79.838  1.00  0.00     0.083 A 
ATOM     14  C   UNL     1     117.042 113.671  79.321  1.00  0.00     0.066 A 
ATOM     15  C   UNL     1     118.231 113.468  80.019  1.00  0.00     0.023 A 
ATOM     16  C   UNL     1     116.284 115.175  81.052  1.00  0.00     0.030 A 
ATOM     17  C   UNL     1     118.448 114.118  81.234  1.00  0.00     0.002 A 
ATOM     18  C   UNL     1     117.474 114.972  81.751  1.00  0.00     0.002 A 
ATOM     19  Cl  UNL     1     116.814 112.846  77.821  1.00  0.00    -0.082 Cl
ENDBRANCH   6  13
ENDBRANCH   3   5
BRANCH   2  20
ATOM     20  C   UNL     1     110.503 111.017  77.731  1.00  0.00     0.116 C 
ATOM     21  C   UNL     1     110.618 110.316  76.354  1.00  0.00     0.030 C 
ATOM     22  C   UNL     1     109.108 111.474  77.965  1.00  0.00     0.016 A 
ATOM     23  C   UNL     1     109.863 111.070  75.235  1.00  0.00     0.009 C 
ATOM     24  C   UNL     1     108.172 111.573  76.962  1.00  0.00     0.044 A 
ATOM     25  C   UNL     1     108.420 111.886  79.122  1.00  0.00     0.141 A 
ATOM     26  C   UNL     1     108.358 111.220  75.535  1.00  0.00     0.056 C 
ATOM     27  N   UNL     1     107.027 112.022  77.545  1.00  0.00    -0.265 N 
ATOM     28  N   UNL     1     107.150 112.225  78.872  1.00  0.00    -0.181 NA
BRANCH  27  29
ATOM     29  C   UNL     1     105.758 112.269  76.903  1.00  0.00     0.180 C 
BRANCH  29  30
ATOM     30  C   UNL     1     104.576 111.828  77.731  1.00  0.00    -0.027 A 
ATOM     31  C   UNL     1     104.195 110.486  77.742  1.00  0.00     0.005 A 
ATOM     32  C   UNL     1     103.864 112.761  78.483  1.00  0.00     0.005 A 
ATOM     33  C   UNL     1     103.101 110.078  78.507  1.00  0.00     0.000 A 
ATOM     34  C   UNL     1     102.771 112.353  79.248  1.00  0.00     0.000 A 
ATOM     35  C   UNL     1     102.389 111.012  79.259  1.00  0.00     0.000 A 
ENDBRANCH  29  30
ENDBRANCH  27  29
ENDBRANCH   2  20
TORSDOF 5
ENDMDL
MODEL 5
REMARK VINA RESULT:      -9.7      2.568      9.229
REMARK SMILES Cc1cc(=O)c(C(=O)N[C@@H]2CCCc3c2cnn3Cc2ccccc2)nn1-c1ccccc1Cl
REMARK SMILES IDX 8 1 9 2 7 3 6 5 27 6 26 7 2 8 3 9 4 10 5 11 1 12 28 13 33 14
REMARK SMILES IDX 32 15 29 16 31 17 30 18 34 19 10 20 11 21 15 22 12 23 14 24
REMARK SMILES IDX 16 25 13 26 18 27 17 28 19 29 20 30 21 31 25 32 22 33 24 34
REMARK SMILES IDX 23 35
REMARK H PARENT 9 4
ROOT
ATOM      1  O   UNL     1     112.300 112.480  80.744  1.00  0.00    -0.267 OA
ATOM      2  N   UNL     1     111.385 112.846  78.615  1.00  0.00    -0.344 N 
ATOM      3  C   UNL     1     112.272 113.026  79.652  1.00  0.00     0.276 C 
ATOM      4  H   UNL     1     111.533 113.365  77.753  1.00  0.00     0.164 HD
ENDROOT
BRANCH   3   5
ATOM      5  C   UNL     1     113.327 114.035  79.356  1.00  0.00     0.196 A 
ATOM      6  N   UNL     1     115.547 114.603  79.524  1.00  0.00    -0.236 N 
ATOM      7  N   UNL     1     114.517 113.721  79.760  1.00  0.00    -0.158 NA
ATOM      8  C   UNL     1     115.399 115.758  78.742  1.00  0.00     0.044 A 
ATOM      9  C   UNL     1     114.200 116.156  78.284  1.00  0.00     0.078 A 
ATOM     10  C   UNL     1     113.049 115.325  78.644  1.00  0.00     0.213 A 
ATOM     11  O   UNL     1     111.897 115.626  78.376  1.00  0.00    -0.287 OA
ATOM     12  C   UNL     1     116.609 116.545  78.300  1.00  0.00     0.067 C 
BRANCH   6  13
ATOM     13  C   UNL     1     116.759 114.210  80.171  1.00  0.00     0.083 A 
ATOM     14  C   UNL     1     117.135 114.755  81.398  1.00  0.00     0.066 A 
ATOM     15  C   UNL     1     118.323 114.352  82.006  1.00  0.00     0.023 A 
ATOM     16  C   UNL     1     117.571 113.261  79.552  1.00  0.00     0.030 A 
ATOM     17  C   UNL     1     119.136 113.403  81.387  1.00  0.00     0.002 A 
ATOM     18  C   UNL     1     118.760 112.857  80.159  1.00  0.00     0.002 A 
ATOM     19  Cl  UNL     1     116.158 115.933  82.199  1.00  0.00    -0.082 Cl
ENDBRANCH   6  13
ENDBRANCH   3   5
BRANCH   2  20
ATOM     20  C   UNL     1     110.281 111.917  78.677  1.00  0.00     0.116 C 
ATOM     21  C   UNL     1     110.741 110.479  78.331  1.00  0.00     0.030 C 
ATOM     22  C   UNL     1     109.232 112.369  77.725  1.00  0.00     0.016 A 
ATOM     23  C   UNL     1     110.945 110.267  76.813  1.00  0.00     0.009 C 
ATOM     24  C   UNL     1     108.986 111.741  76.526  1.00  0.00     0.044 A 
ATOM     25  C   UNL     1     108.305 113.427  77.759  1.00  0.00     0.141 A 
ATOM     26  C   UNL     1     109.660 110.531  76.002  1.00  0.00     0.056 C 
ATOM     27  N   UNL     1     107.973 112.429  75.932  1.00  0.00    -0.265 N 
ATOM     28  N   UNL     1     107.535 113.471  76.665  1.00  0.00    -0.181 NA
BRANCH  27  29
ATOM     29  C   UNL     1     107.349 112.142  74.662  1.00  0.00     0.180 C 
BRANCH  29  30
ATOM     30  C   UNL     1     108.255 112.393  73.481  1.00  0.00    -0.027 A 
ATOM     31  C   UNL     1     108.703 113.686  73.210  1.00  0.00     0.005 A 
ATOM     32  C   UNL     1     108.643 111.335  72.662  1.00  0.00     0.005 A 
ATOM     33  C   UNL     1     109.539 113.920  72.118  1.00  0.00     0.000 A 
ATOM     34  C   UNL     1     109.481 111.568  71.571  1.00  0.00     0.000 A 
ATOM     35  C   UNL     1     109.928 112.861  71.298  1.00  0.00     0.000 A 
ENDBRANCH  29  30
ENDBRANCH  27  29
ENDBRANCH   2  20
TORSDOF 5
ENDMDL
MODEL 6
REMARK VINA RESULT:      -9.5      2.604      3.814
REMARK SMILES Cc1cc(=O)c(C(=O)N[C@@H]2CCCc3c2cnn3Cc2ccccc2)nn1-c1ccccc1Cl
REMARK SMILES IDX 8 1 9 2 7 3 6 5 27 6 26 7 2 8 3 9 4 10 5 11 1 12 28 13 33 14
REMARK SMILES IDX 32 15 29 16 31 17 30 18 34 19 10 20 11 21 15 22 12 23 14 24
REMARK SMILES IDX 16 25 13 26 18 27 17 28 19 29 20 30 21 31 25 32 22 33 24 34
REMARK SMILES IDX 23 35
REMARK H PARENT 9 4
ROOT
ATOM      1  O   UNL     1     110.843 113.283  77.590  1.00  0.00    -0.267 OA
ATOM      2  N   UNL     1     109.737 113.240  79.658  1.00  0.00    -0.344 N 
ATOM      3  C   UNL     1     109.956 112.908  78.340  1.00  0.00     0.276 C 
ATOM      4  H   UNL     1     108.961 112.803  80.147  1.00  0.00     0.164 HD
ENDROOT
BRANCH   3   5
ATOM      5  C   UNL     1     108.946 111.958  77.797  1.00  0.00     0.196 A 
ATOM      6  N   UNL     1     106.720 111.434  77.581  1.00  0.00    -0.236 N 
ATOM      7  N   UNL     1     107.713 112.264  78.048  1.00  0.00    -0.158 NA
ATOM      8  C   UNL     1     106.970 110.352  76.724  1.00  0.00     0.044 A 
ATOM      9  C   UNL     1     108.219 109.968  76.412  1.00  0.00     0.078 A 
ATOM     10  C   UNL     1     109.313 110.732  77.015  1.00  0.00     0.213 A 
ATOM     11  O   UNL     1     110.488 110.428  76.892  1.00  0.00    -0.287 OA
ATOM     12  C   UNL     1     105.831 109.640  76.035  1.00  0.00     0.067 C 
BRANCH   6  13
ATOM     13  C   UNL     1     105.430 111.796  78.076  1.00  0.00     0.083 A 
ATOM     14  C   UNL     1     104.523 112.507  77.290  1.00  0.00     0.066 A 
ATOM     15  C   UNL     1     103.272 112.845  77.801  1.00  0.00     0.023 A 
ATOM     16  C   UNL     1     105.082 111.422  79.374  1.00  0.00     0.030 A 
ATOM     17  C   UNL     1     102.924 112.472  79.099  1.00  0.00     0.002 A 
ATOM     18  C   UNL     1     103.829 111.760  79.886  1.00  0.00     0.002 A 
ATOM     19  Cl  UNL     1     104.914 112.989  75.677  1.00  0.00    -0.082 Cl
ENDBRANCH   6  13
ENDBRANCH   3   5
BRANCH   2  20
ATOM     20  C   UNL     1     110.590 114.145  80.393  1.00  0.00     0.116 C 
ATOM     21  C   UNL     1     110.413 115.603  79.899  1.00  0.00     0.030 C 
ATOM     22  C   UNL     1     112.000 113.707  80.222  1.00  0.00     0.016 A 
ATOM     23  C   UNL     1     111.139 115.872  78.561  1.00  0.00     0.009 C 
ATOM     24  C   UNL     1     112.901 114.371  79.421  1.00  0.00     0.044 A 
ATOM     25  C   UNL     1     112.736 112.631  80.752  1.00  0.00     0.141 A 
ATOM     26  C   UNL     1     112.657 115.612  78.649  1.00  0.00     0.056 C 
ATOM     27  N   UNL     1     114.073 113.686  79.508  1.00  0.00    -0.265 N 
ATOM     28  N   UNL     1     114.002 112.611  80.318  1.00  0.00    -0.181 NA
BRANCH  27  29
ATOM     29  C   UNL     1     115.322 114.005  78.859  1.00  0.00     0.180 C 
BRANCH  29  30
ATOM     30  C   UNL     1     116.460 114.218  79.827  1.00  0.00    -0.027 A 
ATOM     31  C   UNL     1     116.384 115.236  80.778  1.00  0.00     0.005 A 
ATOM     32  C   UNL     1     117.587 113.400  79.770  1.00  0.00     0.005 A 
ATOM     33  C   UNL     1     117.436 115.434  81.673  1.00  0.00     0.000 A 
ATOM     34  C   UNL     1     118.639 113.597  80.665  1.00  0.00     0.000 A 
ATOM     35  C   UNL     1     118.564 114.615  81.616  1.00  0.00     0.000 A 
ENDBRANCH  29  30
ENDBRANCH  27  29
ENDBRANCH   2  20
TORSDOF 5
ENDMDL
MODEL 7
REMARK VINA RESULT:      -9.3      3.255      9.826
REMARK SMILES Cc1cc(=O)c(C(=O)N[C@@H]2CCCc3c2cnn3Cc2ccccc2)nn1-c1ccccc1Cl
REMARK SMILES IDX 8 1 9 2 7 3 6 5 27 6 26 7 2 8 3 9 4 10 5 11 1 12 28 13 33 14
REMARK SMILES IDX 32 15 29 16 31 17 30 18 34 19 10 20 11 21 15 22 12 23 14 24
REMARK SMILES IDX 16 25 13 26 18 27 17 28 19 29 20 30 21 31 25 32 22 33 24 34
REMARK SMILES IDX 23 35
REMARK H PARENT 9 4
ROOT
ATOM      1  O   UNL     1     113.920 111.662  80.354  1.00  0.00    -0.267 OA
ATOM      2  N   UNL     1     112.397 113.368  79.833  1.00  0.00    -0.344 N 
ATOM      3  C   UNL     1     113.637 112.800  80.013  1.00  0.00     0.276 C 
ATOM      4  H   UNL     1     112.345 114.331  79.510  1.00  0.00     0.164 HD
ENDROOT
BRANCH   3   5
ATOM      5  C   UNL     1     114.760 113.740  79.742  1.00  0.00     0.196 A 
ATOM      6  N   UNL     1     116.979 114.234  80.078  1.00  0.00    -0.236 N 
ATOM      7  N   UNL     1     115.892 113.414  80.282  1.00  0.00    -0.158 NA
ATOM      8  C   UNL     1     116.957 115.326  79.199  1.00  0.00     0.044 A 
ATOM      9  C   UNL     1     115.826 115.731  78.598  1.00  0.00     0.078 A 
ATOM     10  C   UNL     1     114.609 114.977  78.909  1.00  0.00     0.213 A 
ATOM     11  O   UNL     1     113.502 115.299  78.509  1.00  0.00    -0.287 OA
ATOM     12  C   UNL     1     118.238 116.027  78.816  1.00  0.00     0.067 C 
BRANCH   6  13
ATOM     13  C   UNL     1     118.106 113.849  80.867  1.00  0.00     0.083 A 
ATOM     14  C   UNL     1     118.377 114.460  82.092  1.00  0.00     0.066 A 
ATOM     15  C   UNL     1     119.484 114.062  82.840  1.00  0.00     0.023 A 
ATOM     16  C   UNL     1     118.943 112.840  80.392  1.00  0.00     0.030 A 
ATOM     17  C   UNL     1     120.321 113.053  82.364  1.00  0.00     0.002 A 
ATOM     18  C   UNL     1     120.051 112.442  81.140  1.00  0.00     0.002 A 
ATOM     19  Cl  UNL     1     117.366 115.713  82.717  1.00  0.00    -0.082 Cl
ENDBRANCH   6  13
ENDBRANCH   3   5
BRANCH   2  20
ATOM     20  C   UNL     1     111.163 112.645  80.037  1.00  0.00     0.116 C 
ATOM     21  C   UNL     1     111.315 111.157  79.634  1.00  0.00     0.030 C 
ATOM     22  C   UNL     1     110.097 113.294  79.230  1.00  0.00     0.016 A 
ATOM     23  C   UNL     1     111.283 110.948  78.102  1.00  0.00     0.009 C 
ATOM     24  C   UNL     1     109.593 112.748  78.073  1.00  0.00     0.044 A 
ATOM     25  C   UNL     1     109.382 114.497  79.385  1.00  0.00     0.141 A 
ATOM     26  C   UNL     1     109.972 111.450  77.465  1.00  0.00     0.056 C 
ATOM     27  N   UNL     1     108.650 113.615  77.615  1.00  0.00    -0.265 N 
ATOM     28  N   UNL     1     108.499 114.700  78.400  1.00  0.00    -0.181 NA
BRANCH  27  29
ATOM     29  C   UNL     1     107.828 113.470  76.437  1.00  0.00     0.180 C 
BRANCH  29  30
ATOM     30  C   UNL     1     107.036 112.186  76.415  1.00  0.00    -0.027 A 
ATOM     31  C   UNL     1     106.057 111.955  77.381  1.00  0.00     0.005 A 
ATOM     32  C   UNL     1     107.283 111.231  75.430  1.00  0.00     0.005 A 
ATOM     33  C   UNL     1     105.325 110.767  77.361  1.00  0.00     0.000 A 
ATOM     34  C   UNL     1     106.551 110.044  75.409  1.00  0.00     0.000 A 
ATOM     35  C   UNL     1     105.572 109.811  76.376  1.00  0.00     0.000 A 
ENDBRANCH  29  30
ENDBRANCH  27  29
ENDBRANCH   2  20
TORSDOF 5
ENDMDL
MODEL 8
REMARK VINA RESULT:      -9.3      2.193      3.050
REMARK SMILES Cc1cc(=O)c(C(=O)N[C@@H]2CCCc3c2cnn3Cc2ccccc2)nn1-c1ccccc1Cl
REMARK SMILES IDX 8 1 9 2 7 3 6 5 27 6 26 7 2 8 3 9 4 10 5 11 1 12 28 13 33 14
REMARK SMILES IDX 32 15 29 16 31 17 30 18 34 19 10 20 11 21 15 22 12 23 14 24
REMARK SMILES IDX 16 25 13 26 18 27 17 28 19 29 20 30 21 31 25 32 22 33 24 34
REMARK SMILES IDX 23 35
REMARK H PARENT 9 4
ROOT
ATOM      1  O   UNL     1     108.624 112.243  76.724  1.00  0.00    -0.267 OA
ATOM      2  N   UNL     1     110.917 112.626  77.039  1.00  0.00    -0.344 N 
ATOM      3  C   UNL     1     109.791 112.200  76.370  1.00  0.00     0.276 C 
ATOM      4  H   UNL     1     111.818 112.545  76.575  1.00  0.00     0.164 HD
ENDROOT
BRANCH   3   5
ATOM      5  C   UNL     1     110.088 111.615  75.033  1.00  0.00     0.196 A 
ATOM      6  N   UNL     1     109.542 111.541  72.803  1.00  0.00    -0.236 N 
ATOM      7  N   UNL     1     109.331 112.035  74.069  1.00  0.00    -0.158 NA
ATOM      8  C   UNL     1     110.627 110.714  72.476  1.00  0.00     0.044 A 
ATOM      9  C   UNL     1     111.460 110.235  73.415  1.00  0.00     0.078 A 
ATOM     10  C   UNL     1     111.179 110.613  74.801  1.00  0.00     0.213 A 
ATOM     11  O   UNL     1     111.797 110.169  75.754  1.00  0.00    -0.287 OA
ATOM     12  C   UNL     1     110.958 110.416  71.034  1.00  0.00     0.067 C 
BRANCH   6  13
ATOM     13  C   UNL     1     108.531 111.955  71.881  1.00  0.00     0.083 A 
ATOM     14  C   UNL     1     107.476 111.111  71.533  1.00  0.00     0.066 A 
ATOM     15  C   UNL     1     106.505 111.543  70.632  1.00  0.00     0.023 A 
ATOM     16  C   UNL     1     108.612 113.232  71.328  1.00  0.00     0.030 A 
ATOM     17  C   UNL     1     106.587 112.820  70.078  1.00  0.00     0.002 A 
ATOM     18  C   UNL     1     107.640 113.665  70.426  1.00  0.00     0.002 A 
ATOM     19  Cl  UNL     1     107.338 109.521  72.196  1.00  0.00    -0.082 Cl
ENDBRANCH   6  13
ENDBRANCH   3   5
BRANCH   2  20
ATOM     20  C   UNL     1     110.871 113.227  78.351  1.00  0.00     0.116 C 
ATOM     21  C   UNL     1     110.129 114.586  78.317  1.00  0.00     0.030 C 
ATOM     22  C   UNL     1     112.265 113.409  78.835  1.00  0.00     0.016 A 
ATOM     23  C   UNL     1     110.996 115.725  77.734  1.00  0.00     0.009 C 
ATOM     24  C   UNL     1     112.886 114.635  78.889  1.00  0.00     0.044 A 
ATOM     25  C   UNL     1     113.235 112.509  79.314  1.00  0.00     0.141 A 
ATOM     26  C   UNL     1     112.296 115.947  78.533  1.00  0.00     0.056 C 
ATOM     27  N   UNL     1     114.138 114.413  79.372  1.00  0.00    -0.265 N 
ATOM     28  N   UNL     1     114.382 113.114  79.641  1.00  0.00    -0.181 NA
BRANCH  27  29
ATOM     29  C   UNL     1     115.165 115.395  79.626  1.00  0.00     0.180 C 
BRANCH  29  30
ATOM     30  C   UNL     1     116.415 114.809  80.236  1.00  0.00    -0.027 A 
ATOM     31  C   UNL     1     116.901 115.308  81.444  1.00  0.00     0.005 A 
ATOM     32  C   UNL     1     117.083 113.769  79.591  1.00  0.00     0.005 A 
ATOM     33  C   UNL     1     118.057 114.766  82.008  1.00  0.00     0.000 A 
ATOM     34  C   UNL     1     118.238 113.227  80.155  1.00  0.00     0.000 A 
ATOM     35  C   UNL     1     118.726 113.726  81.363  1.00  0.00     0.000 A 
ENDBRANCH  29  30
ENDBRANCH  27  29
ENDBRANCH   2  20
TORSDOF 5
ENDMDL
MODEL 9
REMARK VINA RESULT:      -9.2      1.763      2.181
REMARK SMILES Cc1cc(=O)c(C(=O)N[C@@H]2CCCc3c2cnn3Cc2ccccc2)nn1-c1ccccc1Cl
REMARK SMILES IDX 8 1 9 2 7 3 6 5 27 6 26 7 2 8 3 9 4 10 5 11 1 12 28 13 33 14
REMARK SMILES IDX 32 15 29 16 31 17 30 18 34 19 10 20 11 21 15 22 12 23 14 24
REMARK SMILES IDX 16 25 13 26 18 27 17 28 19 29 20 30 21 31 25 32 22 33 24 34
REMARK SMILES IDX 23 35
REMARK H PARENT 9 4
ROOT
ATOM      1  O   UNL     1     111.173 110.329  77.517  1.00  0.00    -0.267 OA
ATOM      2  N   UNL     1     110.746 112.195  78.873  1.00  0.00    -0.344 N 
ATOM      3  C   UNL     1     110.540 111.326  77.825  1.00  0.00     0.276 C 
ATOM      4  H   UNL     1     110.094 112.963  79.003  1.00  0.00     0.164 HD
ENDROOT
BRANCH   3   5
ATOM      5  C   UNL     1     109.372 111.693  76.978  1.00  0.00     0.196 A 
ATOM      6  N   UNL     1     108.573 112.042  74.852  1.00  0.00    -0.236 N 
ATOM      7  N   UNL     1     109.603 111.711  75.703  1.00  0.00    -0.158 NA
ATOM      8  C   UNL     1     107.251 112.220  75.286  1.00  0.00     0.044 A 
ATOM      9  C   UNL     1     106.926 112.215  76.590  1.00  0.00     0.078 A 
ATOM     10  C   UNL     1     108.022 112.019  77.541  1.00  0.00     0.213 A 
ATOM     11  O   UNL     1     107.878 112.091  78.751  1.00  0.00    -0.287 OA
ATOM     12  C   UNL     1     106.123 112.321  74.288  1.00  0.00     0.067 C 
BRANCH   6  13
ATOM     13  C   UNL     1     109.010 112.192  73.500  1.00  0.00     0.083 A 
ATOM     14  C   UNL     1     109.339 113.443  72.978  1.00  0.00     0.066 A 
ATOM     15  C   UNL     1     109.763 113.557  71.655  1.00  0.00     0.023 A 
ATOM     16  C   UNL     1     109.107 111.055  72.698  1.00  0.00     0.030 A 
ATOM     17  C   UNL     1     109.860 112.420  70.853  1.00  0.00     0.002 A 
ATOM     18  C   UNL     1     109.532 111.169  71.374  1.00  0.00     0.002 A 
ATOM     19  Cl  UNL     1     109.233 114.876  73.937  1.00  0.00    -0.082 Cl
ENDBRANCH   6  13
ENDBRANCH   3   5
BRANCH   2  20
ATOM     20  C   UNL     1     111.820 112.037  79.826  1.00  0.00     0.116 C 
ATOM     21  C   UNL     1     111.473 112.713  81.176  1.00  0.00     0.030 C 
ATOM     22  C   UNL     1     113.053 112.633  79.249  1.00  0.00     0.016 A 
ATOM     23  C   UNL     1     111.627 114.251  81.129  1.00  0.00     0.009 C 
ATOM     24  C   UNL     1     113.578 113.831  79.676  1.00  0.00     0.044 A 
ATOM     25  C   UNL     1     113.933 112.212  78.234  1.00  0.00     0.141 A 
ATOM     26  C   UNL     1     113.060 114.690  80.766  1.00  0.00     0.056 C 
ATOM     27  N   UNL     1     114.690 114.055  78.925  1.00  0.00    -0.265 N 
ATOM     28  N   UNL     1     114.932 113.077  78.029  1.00  0.00    -0.181 NA
BRANCH  27  29
ATOM     29  C   UNL     1     115.594 115.177  79.013  1.00  0.00     0.180 C 
BRANCH  29  30
ATOM     30  C   UNL     1     116.687 114.984  80.035  1.00  0.00    -0.027 A 
ATOM     31  C   UNL     1     117.808 114.216  79.720  1.00  0.00     0.005 A 
ATOM     32  C   UNL     1     116.576 115.573  81.294  1.00  0.00     0.005 A 
ATOM     33  C   UNL     1     118.818 114.038  80.665  1.00  0.00     0.000 A 
ATOM     34  C   UNL     1     117.587 115.395  82.239  1.00  0.00     0.000 A 
ATOM     35  C   UNL     1     118.708 114.626  81.925  1.00  0.00     0.000 A 
ENDBRANCH  29  30
ENDBRANCH  27  29
ENDBRANCH   2  20
TORSDOF 5
ENDMDL
MODEL 10
REMARK VINA RESULT:      -9.1      2.030      2.983
REMARK SMILES Cc1cc(=O)c(C(=O)N[C@@H]2CCCc3c2cnn3Cc2ccccc2)nn1-c1ccccc1Cl
REMARK SMILES IDX 8 1 9 2 7 3 6 5 27 6 26 7 2 8 3 9 4 10 5 11 1 12 28 13 33 14
REMARK SMILES IDX 32 15 29 16 31 17 30 18 34 19 10 20 11 21 15 22 12 23 14 24
REMARK SMILES IDX 16 25 13 26 18 27 17 28 19 29 20 30 21 31 25 32 22 33 24 34
REMARK SMILES IDX 23 35
REMARK H PARENT 9 4
ROOT
ATOM      1  O   UNL     1     106.173 113.124  77.245  1.00  0.00    -0.267 OA
ATOM      2  N   UNL     1     108.515 113.247  77.204  1.00  0.00    -0.344 N 
ATOM      3  C   UNL     1     107.267 112.854  76.775  1.00  0.00     0.276 C 
ATOM      4  H   UNL     1     109.328 112.955  76.668  1.00  0.00     0.164 HD
ENDROOT
BRANCH   3   5
ATOM      5  C   UNL     1     107.307 111.981  75.570  1.00  0.00     0.196 A 
ATOM      6  N   UNL     1     107.904 111.780  73.360  1.00  0.00    -0.236 N 
ATOM      7  N   UNL     1     107.831 112.524  74.516  1.00  0.00    -0.158 NA
ATOM      8  C   UNL     1     107.571 110.419  73.305  1.00  0.00     0.044 A 
ATOM      9  C   UNL     1     107.023 109.780  74.352  1.00  0.00     0.078 A 
ATOM     10  C   UNL     1     106.784 110.576  75.558  1.00  0.00     0.213 A 
ATOM     11  O   UNL     1     106.206 110.144  76.541  1.00  0.00    -0.287 OA
ATOM     12  C   UNL     1     107.915 109.594  72.089  1.00  0.00     0.067 C 
BRANCH   6  13
ATOM     13  C   UNL     1     108.340 112.555  72.242  1.00  0.00     0.083 A 
ATOM     14  C   UNL     1     109.689 112.845  72.041  1.00  0.00     0.066 A 
ATOM     15  C   UNL     1     110.084 113.603  70.941  1.00  0.00     0.023 A 
ATOM     16  C   UNL     1     107.386 113.023  71.339  1.00  0.00     0.030 A 
ATOM     17  C   UNL     1     109.130 114.072  70.038  1.00  0.00     0.002 A 
ATOM     18  C   UNL     1     107.780 113.782  70.236  1.00  0.00     0.002 A 
ATOM     19  Cl  UNL     1     110.904 112.285  73.135  1.00  0.00    -0.082 Cl
ENDBRANCH   6  13
ENDBRANCH   3   5
BRANCH   2  20
ATOM     20  C   UNL     1     108.720 114.096  78.354  1.00  0.00     0.116 C 
ATOM     21  C   UNL     1     108.841 115.583  77.935  1.00  0.00     0.030 C 
ATOM     22  C   UNL     1     109.955 113.653  79.052  1.00  0.00     0.016 A 
ATOM     23  C   UNL     1     110.223 115.923  77.332  1.00  0.00     0.009 C 
ATOM     24  C   UNL     1     111.139 114.353  79.003  1.00  0.00     0.044 A 
ATOM     25  C   UNL     1     110.247 112.539  79.861  1.00  0.00     0.141 A 
ATOM     26  C   UNL     1     111.381 115.641  78.311  1.00  0.00     0.056 C 
ATOM     27  N   UNL     1     112.035 113.650  79.747  1.00  0.00    -0.265 N 
ATOM     28  N   UNL     1     111.515 112.529  80.286  1.00  0.00    -0.181 NA
BRANCH  27  29
ATOM     29  C   UNL     1     113.412 113.993  80.011  1.00  0.00     0.180 C 
BRANCH  29  30
ATOM     30  C   UNL     1     114.368 113.464  78.970  1.00  0.00    -0.027 A 
ATOM     31  C   UNL     1     113.934 112.519  78.041  1.00  0.00     0.005 A 
ATOM     32  C   UNL     1     115.685 113.919  78.938  1.00  0.00     0.005 A 
ATOM     33  C   UNL     1     114.818 112.030  77.079  1.00  0.00     0.000 A 
ATOM     34  C   UNL     1     116.569 113.430  77.976  1.00  0.00     0.000 A 
ATOM     35  C   UNL     1     116.136 112.484  77.046  1.00  0.00     0.000 A 
ENDBRANCH  29  30
ENDBRANCH  27  29
ENDBRANCH   2  20
TORSDOF 5
ENDMDL
MODEL 11
REMARK VINA RESULT:      -8.8      2.929      9.841
REMARK SMILES Cc1cc(=O)c(C(=O)N[C@@H]2CCCc3c2cnn3Cc2ccccc2)nn1-c1ccccc1Cl
REMARK SMILES IDX 8 1 9 2 7 3 6 5 27 6 26 7 2 8 3 9 4 10 5 11 1 12 28 13 33 14
REMARK SMILES IDX 32 15 29 16 31 17 30 18 34 19 10 20 11 21 15 22 12 23 14 24
REMARK SMILES IDX 16 25 13 26 18 27 17 28 19 29 20 30 21 31 25 32 22 33 24 34
REMARK SMILES IDX 23 35
REMARK H PARENT 9 4
ROOT
ATOM      1  O   UNL     1     112.914 112.927  80.571  1.00  0.00    -0.267 OA
ATOM      2  N   UNL     1     112.337 113.343  78.336  1.00  0.00    -0.344 N 
ATOM      3  C   UNL     1     113.099 113.439  79.478  1.00  0.00     0.276 C 
ATOM      4  H   UNL     1     112.661 113.813  77.495  1.00  0.00     0.164 HD
ENDROOT
BRANCH   3   5
ATOM      5  C   UNL     1     114.306 114.295  79.310  1.00  0.00     0.196 A 
ATOM      6  N   UNL     1     116.536 114.587  79.778  1.00  0.00    -0.236 N 
ATOM      7  N   UNL     1     115.378 113.852  79.887  1.00  0.00    -0.158 NA
ATOM      8  C   UNL     1     116.649 115.717  78.955  1.00  0.00     0.044 A 
ATOM      9  C   UNL     1     115.586 116.242  78.321  1.00  0.00     0.078 A 
ATOM     10  C   UNL     1     114.298 115.578  78.534  1.00  0.00     0.213 A 
ATOM     11  O   UNL     1     113.244 116.008  78.098  1.00  0.00    -0.287 OA
ATOM     12  C   UNL     1     117.999 116.328  78.670  1.00  0.00     0.067 C 
BRANCH   6  13
ATOM     13  C   UNL     1     117.586 114.074  80.600  1.00  0.00     0.083 A 
ATOM     14  C   UNL     1     117.823 114.584  81.877  1.00  0.00     0.066 A 
ATOM     15  C   UNL     1     118.854 114.063  82.656  1.00  0.00     0.023 A 
ATOM     16  C   UNL     1     118.381 113.042  80.104  1.00  0.00     0.030 A 
ATOM     17  C   UNL     1     119.650 113.031  82.160  1.00  0.00     0.002 A 
ATOM     18  C   UNL     1     119.414 112.520  80.884  1.00  0.00     0.002 A 
ATOM     19  Cl  UNL     1     116.861 115.863  82.529  1.00  0.00    -0.082 Cl
ENDBRANCH   6  13
ENDBRANCH   3   5
BRANCH   2  20
ATOM     20  C   UNL     1     111.122 112.566  78.264  1.00  0.00     0.116 C 
ATOM     21  C   UNL     1     111.424 111.089  77.910  1.00  0.00     0.030 C 
ATOM     22  C   UNL     1     110.234 113.174  77.238  1.00  0.00     0.016 A 
ATOM     23  C   UNL     1     111.741 110.887  76.410  1.00  0.00     0.009 C 
ATOM     24  C   UNL     1     110.024 112.612  76.000  1.00  0.00     0.044 A 
ATOM     25  C   UNL     1     109.451 114.343  77.225  1.00  0.00     0.141 A 
ATOM     26  C   UNL     1     110.583 111.336  75.496  1.00  0.00     0.056 C 
ATOM     27  N   UNL     1     109.169 113.440  75.341  1.00  0.00    -0.265 N 
ATOM     28  N   UNL     1     108.801 114.513  76.068  1.00  0.00    -0.181 NA
BRANCH  27  29
ATOM     29  C   UNL     1     108.636 113.268  74.010  1.00  0.00     0.180 C 
BRANCH  29  30
ATOM     30  C   UNL     1     108.005 111.915  73.791  1.00  0.00    -0.027 A 
ATOM     31  C   UNL     1     108.173 111.257  72.571  1.00  0.00     0.005 A 
ATOM     32  C   UNL     1     107.256 111.322  74.805  1.00  0.00     0.005 A 
ATOM     33  C   UNL     1     107.589 110.007  72.368  1.00  0.00     0.000 A 
ATOM     34  C   UNL     1     106.673 110.071  74.602  1.00  0.00     0.000 A 
ATOM     35  C   UNL     1     106.839 109.413  73.383  1.00  0.00     0.000 A 
ENDBRANCH  29  30
ENDBRANCH  27  29
ENDBRANCH   2  20
TORSDOF 5
ENDMDL
MODEL 12
REMARK VINA RESULT:      -8.8      2.413      3.854
REMARK SMILES Cc1cc(=O)c(C(=O)N[C@@H]2CCCc3c2cnn3Cc2ccccc2)nn1-c1ccccc1Cl
REMARK SMILES IDX 8 1 9 2 7 3 6 5 27 6 26 7 2 8 3 9 4 10 5 11 1 12 28 13 33 14
REMARK SMILES IDX 32 15 29 16 31 17 30 18 34 19 10 20 11 21 15 22 12 23 14 24
REMARK SMILES IDX 16 25 13 26 18 27 17 28 19 29 20 30 21 31 25 32 22 33 24 34
REMARK SMILES IDX 23 35
REMARK H PARENT 9 4
ROOT
ATOM      1  O   UNL     1     112.941 110.744  76.023  1.00  0.00    -0.267 OA
ATOM      2  N   UNL     1     111.636 111.648  77.750  1.00  0.00    -0.344 N 
ATOM      3  C   UNL     1     111.914 111.233  76.467  1.00  0.00     0.276 C 
ATOM      4  H   UNL     1     110.707 112.004  77.955  1.00  0.00     0.164 HD
ENDROOT
BRANCH   3   5
ATOM      5  C   UNL     1     110.776 111.426  75.527  1.00  0.00     0.196 A 
ATOM      6  N   UNL     1     108.496 111.539  75.265  1.00  0.00    -0.236 N 
ATOM      7  N   UNL     1     109.600 111.371  76.069  1.00  0.00    -0.158 NA
ATOM      8  C   UNL     1     108.584 111.910  73.915  1.00  0.00     0.044 A 
ATOM      9  C   UNL     1     109.763 111.991  73.277  1.00  0.00     0.078 A 
ATOM     10  C   UNL     1     110.959 111.668  74.059  1.00  0.00     0.213 A 
ATOM     11  O   UNL     1     112.077 111.609  73.576  1.00  0.00    -0.287 OA
ATOM     12  C   UNL     1     107.350 112.334  73.155  1.00  0.00     0.067 C 
BRANCH   6  13
ATOM     13  C   UNL     1     107.274 111.282  75.958  1.00  0.00     0.083 A 
ATOM     14  C   UNL     1     106.678 112.252  76.764  1.00  0.00     0.066 A 
ATOM     15  C   UNL     1     105.485 111.972  77.428  1.00  0.00     0.023 A 
ATOM     16  C   UNL     1     106.674 110.031  75.816  1.00  0.00     0.030 A 
ATOM     17  C   UNL     1     104.886 110.720  77.287  1.00  0.00     0.002 A 
ATOM     18  C   UNL     1     105.480 109.749  76.481  1.00  0.00     0.002 A 
ATOM     19  Cl  UNL     1     107.387 113.814  76.967  1.00  0.00    -0.082 Cl
ENDBRANCH   6  13
ENDBRANCH   3   5
BRANCH   2  20
ATOM     20  C   UNL     1     112.591 111.557  78.830  1.00  0.00     0.116 C 
ATOM     21  C   UNL     1     111.932 111.904  80.188  1.00  0.00     0.030 C 
ATOM     22  C   UNL     1     113.714 112.488  78.546  1.00  0.00     0.016 A 
ATOM     23  C   UNL     1     111.730 113.425  80.383  1.00  0.00     0.009 C 
ATOM     24  C   UNL     1     113.890 113.678  79.214  1.00  0.00     0.044 A 
ATOM     25  C   UNL     1     114.786 112.441  77.635  1.00  0.00     0.141 A 
ATOM     26  C   UNL     1     113.057 114.210  80.318  1.00  0.00     0.056 C 
ATOM     27  N   UNL     1     115.005 114.255  78.688  1.00  0.00    -0.265 N 
ATOM     28  N   UNL     1     115.576 113.518  77.715  1.00  0.00    -0.181 NA
BRANCH  27  29
ATOM     29  C   UNL     1     115.606 115.509  79.075  1.00  0.00     0.180 C 
BRANCH  29  30
ATOM     30  C   UNL     1     116.637 115.365  80.167  1.00  0.00    -0.027 A 
ATOM     31  C   UNL     1     116.299 115.657  81.488  1.00  0.00     0.005 A 
ATOM     32  C   UNL     1     117.928 114.940  79.856  1.00  0.00     0.005 A 
ATOM     33  C   UNL     1     117.252 115.525  82.498  1.00  0.00     0.000 A 
ATOM     34  C   UNL     1     118.881 114.807  80.865  1.00  0.00     0.000 A 
ATOM     35  C   UNL     1     118.544 115.100  82.187  1.00  0.00     0.000 A 
ENDBRANCH  29  30
ENDBRANCH  27  29
ENDBRANCH   2  20
TORSDOF 5
ENDMDL
MODEL 13
REMARK VINA RESULT:      -8.7      3.053      9.187
REMARK SMILES Cc1cc(=O)c(C(=O)N[C@@H]2CCCc3c2cnn3Cc2ccccc2)nn1-c1ccccc1Cl
REMARK SMILES IDX 8 1 9 2 7 3 6 5 27 6 26 7 2 8 3 9 4 10 5 11 1 12 28 13 33 14
REMARK SMILES IDX 32 15 29 16 31 17 30 18 34 19 10 20 11 21 15 22 12 23 14 24
REMARK SMILES IDX 16 25 13 26 18 27 17 28 19 29 20 30 21 31 25 32 22 33 24 34
REMARK SMILES IDX 23 35
REMARK H PARENT 9 4
ROOT
ATOM      1  O   UNL     1     113.412 112.308  79.406  1.00  0.00    -0.267 OA
ATOM      2  N   UNL     1     112.516 114.141  80.564  1.00  0.00    -0.344 N 
ATOM      3  C   UNL     1     113.462 113.446  79.844  1.00  0.00     0.276 C 
ATOM      4  H   UNL     1     112.712 115.105  80.822  1.00  0.00     0.164 HD
ENDROOT
BRANCH   3   5
ATOM      5  C   UNL     1     114.701 114.232  79.589  1.00  0.00     0.196 A 
ATOM      6  N   UNL     1     116.950 114.464  79.998  1.00  0.00    -0.236 N 
ATOM      7  N   UNL     1     115.764 113.791  80.184  1.00  0.00    -0.158 NA
ATOM      8  C   UNL     1     117.095 115.517  79.083  1.00  0.00     0.044 A 
ATOM      9  C   UNL     1     116.044 116.033  78.423  1.00  0.00     0.078 A 
ATOM     10  C   UNL     1     114.734 115.446  78.709  1.00  0.00     0.213 A 
ATOM     11  O   UNL     1     113.691 115.884  78.253  1.00  0.00    -0.287 OA
ATOM     12  C   UNL     1     118.465 116.042  78.729  1.00  0.00     0.067 C 
BRANCH   6  13
ATOM     13  C   UNL     1     117.991 113.976  80.845  1.00  0.00     0.083 A 
ATOM     14  C   UNL     1     118.210 114.516  82.112  1.00  0.00     0.066 A 
ATOM     15  C   UNL     1     119.233 114.018  82.916  1.00  0.00     0.023 A 
ATOM     16  C   UNL     1     118.798 112.936  80.383  1.00  0.00     0.030 A 
ATOM     17  C   UNL     1     120.041 112.978  82.454  1.00  0.00     0.002 A 
ATOM     18  C   UNL     1     119.823 112.437  81.187  1.00  0.00     0.002 A 
ATOM     19  Cl  UNL     1     117.234 115.804  82.723  1.00  0.00    -0.082 Cl
ENDBRANCH   6  13
ENDBRANCH   3   5
BRANCH   2  20
ATOM     20  C   UNL     1     111.237 113.580  80.928  1.00  0.00     0.116 C 
ATOM     21  C   UNL     1     111.412 112.304  81.789  1.00  0.00     0.030 C 
ATOM     22  C   UNL     1     110.488 113.266  79.683  1.00  0.00     0.016 A 
ATOM     23  C   UNL     1     111.810 111.067  80.950  1.00  0.00     0.009 C 
ATOM     24  C   UNL     1     110.308 111.984  79.217  1.00  0.00     0.044 A 
ATOM     25  C   UNL     1     109.830 114.072  78.735  1.00  0.00     0.141 A 
ATOM     26  C   UNL     1     110.770 110.731  79.862  1.00  0.00     0.056 C 
ATOM     27  N   UNL     1     109.589 112.087  78.067  1.00  0.00    -0.265 N 
ATOM     28  N   UNL     1     109.282 113.359  77.745  1.00  0.00    -0.181 NA
BRANCH  27  29
ATOM     29  C   UNL     1     109.135 111.010  77.220  1.00  0.00     0.180 C 
BRANCH  29  30
ATOM     30  C   UNL     1     109.972 110.837  75.976  1.00  0.00    -0.027 A 
ATOM     31  C   UNL     1     109.479 111.257  74.740  1.00  0.00     0.005 A 
ATOM     32  C   UNL     1     111.236 110.256  76.061  1.00  0.00     0.005 A 
ATOM     33  C   UNL     1     110.251 111.096  73.590  1.00  0.00     0.000 A 
ATOM     34  C   UNL     1     112.009 110.096  74.911  1.00  0.00     0.000 A 
ATOM     35  C   UNL     1     111.517 110.515  73.675  1.00  0.00     0.000 A 
ENDBRANCH  29  30
ENDBRANCH  27  29
ENDBRANCH   2  20
TORSDOF 5
ENDMDL
MODEL 14
REMARK VINA RESULT:      -8.7      1.846      3.406
REMARK SMILES Cc1cc(=O)c(C(=O)N[C@@H]2CCCc3c2cnn3Cc2ccccc2)nn1-c1ccccc1Cl
REMARK SMILES IDX 8 1 9 2 7 3 6 5 27 6 26 7 2 8 3 9 4 10 5 11 1 12 28 13 33 14
REMARK SMILES IDX 32 15 29 16 31 17 30 18 34 19 10 20 11 21 15 22 12 23 14 24
REMARK SMILES IDX 16 25 13 26 18 27 17 28 19 29 20 30 21 31 25 32 22 33 24 34
REMARK SMILES IDX 23 35
REMARK H PARENT 9 4
ROOT
ATOM      1  O   UNL     1     108.998 115.646  77.921  1.00  0.00    -0.267 OA
ATOM      2  N   UNL     1     110.518 113.923  78.395  1.00  0.00    -0.344 N 
ATOM      3  C   UNL     1     109.458 114.527  77.757  1.00  0.00     0.276 C 
ATOM      4  H   UNL     1     110.791 112.987  78.105  1.00  0.00     0.164 HD
ENDROOT
BRANCH   3   5
ATOM      5  C   UNL     1     108.816 113.658  76.733  1.00  0.00     0.196 A 
ATOM      6  N   UNL     1     107.003 112.361  76.176  1.00  0.00    -0.236 N 
ATOM      7  N   UNL     1     107.662 113.174  77.069  1.00  0.00    -0.158 NA
ATOM      8  C   UNL     1     107.452 112.145  74.865  1.00  0.00     0.044 A 
ATOM      9  C   UNL     1     108.636 112.612  74.435  1.00  0.00     0.078 A 
ATOM     10  C   UNL     1     109.443 113.355  75.405  1.00  0.00     0.213 A 
ATOM     11  O   UNL     1     110.575 113.747  75.174  1.00  0.00    -0.287 OA
ATOM     12  C   UNL     1     106.564 111.463  73.852  1.00  0.00     0.067 C 
BRANCH   6  13
ATOM     13  C   UNL     1     105.835 111.763  76.742  1.00  0.00     0.083 A 
ATOM     14  C   UNL     1     105.713 110.379  76.862  1.00  0.00     0.066 A 
ATOM     15  C   UNL     1     104.562 109.826  77.419  1.00  0.00     0.023 A 
ATOM     16  C   UNL     1     104.805 112.594  77.181  1.00  0.00     0.030 A 
ATOM     17  C   UNL     1     103.530 110.656  77.858  1.00  0.00     0.002 A 
ATOM     18  C   UNL     1     103.652 112.041  77.739  1.00  0.00     0.002 A 
ATOM     19  Cl  UNL     1     106.966 109.314  76.331  1.00  0.00    -0.082 Cl
ENDBRANCH   6  13
ENDBRANCH   3   5
BRANCH   2  20
ATOM     20  C   UNL     1     111.293 114.576  79.424  1.00  0.00     0.116 C 
ATOM     21  C   UNL     1     111.470 116.085  79.117  1.00  0.00     0.030 C 
ATOM     22  C   UNL     1     112.617 113.907  79.514  1.00  0.00     0.016 A 
ATOM     23  C   UNL     1     112.535 116.351  78.028  1.00  0.00     0.009 C 
ATOM     24  C   UNL     1     113.778 114.473  79.039  1.00  0.00     0.044 A 
ATOM     25  C   UNL     1     113.026 112.666  80.036  1.00  0.00     0.141 A 
ATOM     26  C   UNL     1     113.926 115.810  78.417  1.00  0.00     0.056 C 
ATOM     27  N   UNL     1     114.773 113.579  79.289  1.00  0.00    -0.265 N 
ATOM     28  N   UNL     1     114.340 112.458  79.899  1.00  0.00    -0.181 NA
BRANCH  27  29
ATOM     29  C   UNL     1     116.177 113.728  78.990  1.00  0.00     0.180 C 
BRANCH  29  30
ATOM     30  C   UNL     1     117.011 114.079  80.197  1.00  0.00    -0.027 A 
ATOM     31  C   UNL     1     116.682 115.191  80.972  1.00  0.00     0.005 A 
ATOM     32  C   UNL     1     118.109 113.291  80.539  1.00  0.00     0.005 A 
ATOM     33  C   UNL     1     117.453 115.516  82.088  1.00  0.00     0.000 A 
ATOM     34  C   UNL     1     118.880 113.615  81.656  1.00  0.00     0.000 A 
ATOM     35  C   UNL     1     118.552 114.728  82.431  1.00  0.00     0.000 A 
ENDBRANCH  29  30
ENDBRANCH  27  29
ENDBRANCH   2  20
TORSDOF 5
ENDMDL
MODEL 15
REMARK VINA RESULT:      -8.6      2.397      4.067
REMARK SMILES Cc1cc(=O)c(C(=O)N[C@@H]2CCCc3c2cnn3Cc2ccccc2)nn1-c1ccccc1Cl
REMARK SMILES IDX 8 1 9 2 7 3 6 5 27 6 26 7 2 8 3 9 4 10 5 11 1 12 28 13 33 14
REMARK SMILES IDX 32 15 29 16 31 17 30 18 34 19 10 20 11 21 15 22 12 23 14 24
REMARK SMILES IDX 16 25 13 26 18 27 17 28 19 29 20 30 21 31 25 32 22 33 24 34
REMARK SMILES IDX 23 35
REMARK H PARENT 9 4
ROOT
ATOM      1  O   UNL     1     110.972 110.323  77.580  1.00  0.00    -0.267 OA
ATOM      2  N   UNL     1     110.532 112.113  79.030  1.00  0.00    -0.344 N 
ATOM      3  C   UNL     1     110.313 111.279  77.957  1.00  0.00     0.276 C 
ATOM      4  H   UNL     1     109.855 112.848  79.220  1.00  0.00     0.164 HD
ENDROOT
BRANCH   3   5
ATOM      5  C   UNL     1     109.093 111.629  77.178  1.00  0.00     0.196 A 
ATOM      6  N   UNL     1     106.806 111.845  77.182  1.00  0.00    -0.236 N 
ATOM      7  N   UNL     1     107.979 111.538  77.833  1.00  0.00    -0.158 NA
ATOM      8  C   UNL     1     106.769 112.389  75.890  1.00  0.00     0.044 A 
ATOM      9  C   UNL     1     107.879 112.518  75.143  1.00  0.00     0.078 A 
ATOM     10  C   UNL     1     109.133 112.058  75.743  1.00  0.00     0.213 A 
ATOM     11  O   UNL     1     110.192 112.029  75.137  1.00  0.00    -0.287 OA
ATOM     12  C   UNL     1     105.484 112.947  75.329  1.00  0.00     0.067 C 
BRANCH   6  13
ATOM     13  C   UNL     1     105.652 111.534  77.965  1.00  0.00     0.083 A 
ATOM     14  C   UNL     1     104.849 110.433  77.670  1.00  0.00     0.066 A 
ATOM     15  C   UNL     1     103.730 110.155  78.453  1.00  0.00     0.023 A 
ATOM     16  C   UNL     1     105.334 112.358  79.045  1.00  0.00     0.030 A 
ATOM     17  C   UNL     1     103.411 110.979  79.532  1.00  0.00     0.002 A 
ATOM     18  C   UNL     1     104.214 112.081  79.829  1.00  0.00     0.002 A 
ATOM     19  Cl  UNL     1     105.206 109.387  76.342  1.00  0.00    -0.082 Cl
ENDBRANCH   6  13
ENDBRANCH   3   5
BRANCH   2  20
ATOM     20  C   UNL     1     111.654 111.964  79.927  1.00  0.00     0.116 C 
ATOM     21  C   UNL     1     111.363 112.619  81.300  1.00  0.00     0.030 C 
ATOM     22  C   UNL     1     112.847 112.589  79.297  1.00  0.00     0.016 A 
ATOM     23  C   UNL     1     111.488 114.160  81.265  1.00  0.00     0.009 C 
ATOM     24  C   UNL     1     113.371 113.791  79.711  1.00  0.00     0.044 A 
ATOM     25  C   UNL     1     113.682 112.195  78.235  1.00  0.00     0.141 A 
ATOM     26  C   UNL     1     112.894 114.629  80.837  1.00  0.00     0.056 C 
ATOM     27  N   UNL     1     114.441 114.043  78.909  1.00  0.00    -0.265 N 
ATOM     28  N   UNL     1     114.655 113.080  77.991  1.00  0.00    -0.181 NA
BRANCH  27  29
ATOM     29  C   UNL     1     115.328 115.181  78.966  1.00  0.00     0.180 C 
BRANCH  29  30
ATOM     30  C   UNL     1     116.446 115.015  79.966  1.00  0.00    -0.027 A 
ATOM     31  C   UNL     1     116.331 115.574  81.239  1.00  0.00     0.005 A 
ATOM     32  C   UNL     1     117.594 114.305  79.617  1.00  0.00     0.005 A 
ATOM     33  C   UNL     1     117.365 115.422  82.163  1.00  0.00     0.000 A 
ATOM     34  C   UNL     1     118.628 114.152  80.542  1.00  0.00     0.000 A 
ATOM     35  C   UNL     1     118.514 114.712  81.815  1.00  0.00     0.000 A 
ENDBRANCH  29  30
ENDBRANCH  27  29
ENDBRANCH   2  20
TORSDOF 5
ENDMDL
