MODEL 1
REMARK VINA RESULT:     -11.1      0.000      0.000
REMARK SMILES Cc1ccc(C)c(S(=O)(=O)N2CCN(C(=O)Cc3c(C)[nH]c4ccc(C)cc34)CC2)c1
REMARK SMILES IDX 16 1 11 2 14 3 12 4 30 5 13 6 29 7 15 8 8 9 9 10 10 11 7 12
REMARK SMILES IDX 5 13 31 14 4 15 2 16 3 17 6 18 1 19 17 20 18 21 28 22 19 23
REMARK SMILES IDX 22 24 27 25 21 26 23 27 25 28 24 29 20 30 26 32
REMARK H PARENT 21 31
ROOT
ATOM      1  O   UNL     1     109.970 111.491  79.381  1.00  0.00    -0.275 OA
ATOM      2  N   UNL     1     114.204 113.988  79.033  1.00  0.00    -0.194 NA
ATOM      3  N   UNL     1     111.541 113.183  79.628  1.00  0.00    -0.340 N 
ATOM      4  C   UNL     1     113.805 112.554  78.897  1.00  0.00     0.124 C 
ATOM      5  C   UNL     1     113.062 114.908  78.746  1.00  0.00     0.124 C 
ATOM      6  C   UNL     1     112.653 112.257  79.849  1.00  0.00     0.136 C 
ATOM      7  C   UNL     1     111.910 114.601  79.697  1.00  0.00     0.136 C 
ATOM      8  C   UNL     1     110.252 112.690  79.435  1.00  0.00     0.227 C 
ENDROOT
BRANCH   2   9
ATOM      9  S   UNL     1     115.690 114.410  78.292  1.00  0.00     0.243 S 
ATOM     10  O   UNL     1     115.613 115.778  77.826  1.00  0.00    -0.207 OA
ATOM     11  O   UNL     1     116.091 113.341  77.403  1.00  0.00    -0.207 OA
BRANCH   9  12
ATOM     12  C   UNL     1     116.756 114.376  79.697  1.00  0.00     0.085 A 
ATOM     13  C   UNL     1     117.842 113.502  79.760  1.00  0.00    -0.031 A 
ATOM     14  C   UNL     1     116.497 115.244  80.759  1.00  0.00     0.025 A 
ATOM     15  C   UNL     1     118.668 113.496  80.884  1.00  0.00     0.005 A 
ATOM     16  C   UNL     1     117.323 115.236  81.883  1.00  0.00    -0.050 A 
ATOM     17  C   UNL     1     118.409 114.363  81.946  1.00  0.00     0.004 A 
ATOM     18  C   UNL     1     118.147 112.561  78.641  1.00  0.00     0.046 C 
ATOM     19  C   UNL     1     117.046 116.163  83.018  1.00  0.00     0.044 C 
ENDBRANCH   9  12
ENDBRANCH   2   9
BRANCH   8  20
ATOM     20  C   UNL     1     109.154 113.713  79.287  1.00  0.00     0.138 C 
BRANCH  20  21
ATOM     21  C   UNL     1     108.359 113.458  78.044  1.00  0.00    -0.010 A 
ATOM     22  C   UNL     1     107.095 112.809  77.971  1.00  0.00     0.004 A 
ATOM     23  C   UNL     1     108.724 113.809  76.764  1.00  0.00     0.016 A 
ATOM     24  C   UNL     1     106.723 112.786  76.626  1.00  0.00     0.046 A 
ATOM     25  C   UNL     1     106.229 112.237  78.924  1.00  0.00     0.014 A 
ATOM     26  N   UNL     1     107.731 113.400  75.916  1.00  0.00    -0.358 N 
ATOM     27  C   UNL     1     105.523 112.218  76.183  1.00  0.00     0.027 A 
ATOM     28  C   UNL     1     105.026 111.664  78.497  1.00  0.00    -0.050 A 
ATOM     29  C   UNL     1     104.680 111.656  77.146  1.00  0.00     0.005 A 
ATOM     30  C   UNL     1     109.924 114.500  76.254  1.00  0.00     0.064 C 
ATOM     31  H   UNL     1     107.732 113.528  74.914  1.00  0.00     0.166 HD
ATOM     32  C   UNL     1     104.103 111.056  79.499  1.00  0.00     0.044 C 
ENDBRANCH  20  21
ENDBRANCH   8  20
TORSDOF 4
ENDMDL
MODEL 2
REMARK VINA RESULT:     -10.7      1.483      2.124
REMARK SMILES Cc1ccc(C)c(S(=O)(=O)N2CCN(C(=O)Cc3c(C)[nH]c4ccc(C)cc34)CC2)c1
REMARK SMILES IDX 16 1 11 2 14 3 12 4 30 5 13 6 29 7 15 8 8 9 9 10 10 11 7 12
REMARK SMILES IDX 5 13 31 14 4 15 2 16 3 17 6 18 1 19 17 20 18 21 28 22 19 23
REMARK SMILES IDX 22 24 27 25 21 26 23 27 25 28 24 29 20 30 26 32
REMARK H PARENT 21 31
ROOT
ATOM      1  O   UNL     1     110.750 110.854  80.394  1.00  0.00    -0.275 OA
ATOM      2  N   UNL     1     114.860 113.330  79.269  1.00  0.00    -0.194 NA
ATOM      3  N   UNL     1     112.198 112.622  79.980  1.00  0.00    -0.340 N 
ATOM      4  C   UNL     1     114.552 111.947  79.746  1.00  0.00     0.124 C 
ATOM      5  C   UNL     1     113.704 113.930  78.535  1.00  0.00     0.124 C 
ATOM      6  C   UNL     1     113.330 111.986  80.655  1.00  0.00     0.136 C 
ATOM      7  C   UNL     1     112.483 113.959  79.447  1.00  0.00     0.136 C 
ATOM      8  C   UNL     1     110.961 111.981  79.938  1.00  0.00     0.227 C 
ENDROOT
BRANCH   2   9
ATOM      9  S   UNL     1     116.387 113.524  78.517  1.00  0.00     0.243 S 
ATOM     10  O   UNL     1     116.395 114.770  77.780  1.00  0.00    -0.207 OA
ATOM     11  O   UNL     1     116.758 112.278  77.880  1.00  0.00    -0.207 OA
BRANCH   9  12
ATOM     12  C   UNL     1     117.407 113.732  79.941  1.00  0.00     0.085 A 
ATOM     13  C   UNL     1     117.070 114.639  80.946  1.00  0.00    -0.031 A 
ATOM     14  C   UNL     1     118.571 112.969  80.052  1.00  0.00     0.025 A 
ATOM     15  C   UNL     1     117.895 114.783  82.061  1.00  0.00     0.005 A 
ATOM     16  C   UNL     1     119.396 113.115  81.167  1.00  0.00    -0.050 A 
ATOM     17  C   UNL     1     119.058 114.021  82.172  1.00  0.00     0.004 A 
ATOM     18  C   UNL     1     115.832 115.470  80.858  1.00  0.00     0.046 C 
ATOM     19  C   UNL     1     120.640 112.301  81.286  1.00  0.00     0.044 C 
ENDBRANCH   9  12
ENDBRANCH   2   9
BRANCH   8  20
ATOM     20  C   UNL     1     109.831 112.737  79.287  1.00  0.00     0.138 C 
BRANCH  20  21
ATOM     21  C   UNL     1     109.192 111.910  78.214  1.00  0.00    -0.010 A 
ATOM     22  C   UNL     1     107.807 111.605  78.098  1.00  0.00     0.004 A 
ATOM     23  C   UNL     1     109.843 111.307  77.162  1.00  0.00     0.016 A 
ATOM     24  C   UNL     1     107.656 110.814  76.958  1.00  0.00     0.046 A 
ATOM     25  C   UNL     1     106.664 111.929  78.856  1.00  0.00     0.014 A 
ATOM     26  N   UNL     1     108.908 110.648  76.411  1.00  0.00    -0.358 N 
ATOM     27  C   UNL     1     106.414 110.326  76.536  1.00  0.00     0.027 A 
ATOM     28  C   UNL     1     105.415 111.449  78.446  1.00  0.00    -0.050 A 
ATOM     29  C   UNL     1     105.294 110.660  77.304  1.00  0.00     0.005 A 
ATOM     30  C   UNL     1     111.270 111.289  76.788  1.00  0.00     0.064 C 
ATOM     31  H   UNL     1     109.104 110.116  75.574  1.00  0.00     0.166 HD
ATOM     32  C   UNL     1     104.199 111.787  79.243  1.00  0.00     0.044 C 
ENDBRANCH  20  21
ENDBRANCH   8  20
TORSDOF 4
ENDMDL
MODEL 3
REMARK VINA RESULT:     -10.4      1.238      2.124
REMARK SMILES Cc1ccc(C)c(S(=O)(=O)N2CCN(C(=O)Cc3c(C)[nH]c4ccc(C)cc34)CC2)c1
REMARK SMILES IDX 16 1 11 2 14 3 12 4 30 5 13 6 29 7 15 8 8 9 9 10 10 11 7 12
REMARK SMILES IDX 5 13 31 14 4 15 2 16 3 17 6 18 1 19 17 20 18 21 28 22 19 23
REMARK SMILES IDX 22 24 27 25 21 26 23 27 25 28 24 29 20 30 26 32
REMARK H PARENT 21 31
ROOT
ATOM      1  O   UNL     1     110.755 111.506  79.919  1.00  0.00    -0.275 OA
ATOM      2  N   UNL     1     115.237 113.531  79.612  1.00  0.00    -0.194 NA
ATOM      3  N   UNL     1     112.519 112.980  80.246  1.00  0.00    -0.340 N 
ATOM      4  C   UNL     1     114.671 112.169  79.369  1.00  0.00     0.124 C 
ATOM      5  C   UNL     1     114.201 114.596  79.454  1.00  0.00     0.124 C 
ATOM      6  C   UNL     1     113.522 111.919  80.340  1.00  0.00     0.136 C 
ATOM      7  C   UNL     1     113.052 114.336  80.422  1.00  0.00     0.136 C 
ATOM      8  C   UNL     1     111.176 112.656  80.066  1.00  0.00     0.227 C 
ENDROOT
BRANCH   2   9
ATOM      9  S   UNL     1     116.738 113.848  78.849  1.00  0.00     0.243 S 
ATOM     10  O   UNL     1     116.723 115.195  78.321  1.00  0.00    -0.207 OA
ATOM     11  O   UNL     1     117.084 112.722  78.009  1.00  0.00    -0.207 OA
BRANCH   9  12
ATOM     12  C   UNL     1     117.808 113.829  80.252  1.00  0.00     0.085 A 
ATOM     13  C   UNL     1     117.580 114.664  81.346  1.00  0.00    -0.031 A 
ATOM     14  C   UNL     1     118.898 112.958  80.255  1.00  0.00     0.025 A 
ATOM     15  C   UNL     1     118.442 114.629  82.442  1.00  0.00     0.005 A 
ATOM     16  C   UNL     1     119.760 112.923  81.351  1.00  0.00    -0.050 A 
ATOM     17  C   UNL     1     119.532 113.758  82.445  1.00  0.00     0.004 A 
ATOM     18  C   UNL     1     116.422 115.608  81.374  1.00  0.00     0.046 C 
ATOM     19  C   UNL     1     120.925 111.993  81.354  1.00  0.00     0.044 C 
ENDBRANCH   9  12
ENDBRANCH   2   9
BRANCH   8  20
ATOM     20  C   UNL     1     110.200 113.805  80.053  1.00  0.00     0.138 C 
BRANCH  20  21
ATOM     21  C   UNL     1     109.577 113.953  78.699  1.00  0.00    -0.010 A 
ATOM     22  C   UNL     1     108.401 113.299  78.237  1.00  0.00     0.004 A 
ATOM     23  C   UNL     1     110.043 114.748  77.677  1.00  0.00     0.016 A 
ATOM     24  C   UNL     1     108.184 113.725  76.926  1.00  0.00     0.046 A 
ATOM     25  C   UNL     1     107.498 112.382  78.812  1.00  0.00     0.014 A 
ATOM     26  N   UNL     1     109.196 114.603  76.612  1.00  0.00    -0.358 N 
ATOM     27  C   UNL     1     107.104 113.278  76.156  1.00  0.00     0.027 A 
ATOM     28  C   UNL     1     106.413 111.926  78.054  1.00  0.00    -0.050 A 
ATOM     29  C   UNL     1     106.221 112.369  76.746  1.00  0.00     0.005 A 
ATOM     30  C   UNL     1     111.215 115.641  77.601  1.00  0.00     0.064 C 
ATOM     31  H   UNL     1     109.294 115.072  75.722  1.00  0.00     0.166 HD
ATOM     32  C   UNL     1     105.453 110.955  78.654  1.00  0.00     0.044 C 
ENDBRANCH  20  21
ENDBRANCH   8  20
TORSDOF 4
ENDMDL
MODEL 4
REMARK VINA RESULT:     -10.3      3.253      8.845
REMARK SMILES Cc1ccc(C)c(S(=O)(=O)N2CCN(C(=O)Cc3c(C)[nH]c4ccc(C)cc34)CC2)c1
REMARK SMILES IDX 16 1 11 2 14 3 12 4 30 5 13 6 29 7 15 8 8 9 9 10 10 11 7 12
REMARK SMILES IDX 5 13 31 14 4 15 2 16 3 17 6 18 1 19 17 20 18 21 28 22 19 23
REMARK SMILES IDX 22 24 27 25 21 26 23 27 25 28 24 29 20 30 26 32
REMARK H PARENT 21 31
ROOT
ATOM      1  O   UNL     1     110.589 115.866  79.828  1.00  0.00    -0.275 OA
ATOM      2  N   UNL     1     110.056 112.814  75.995  1.00  0.00    -0.194 NA
ATOM      3  N   UNL     1     110.137 113.944  78.604  1.00  0.00    -0.340 N 
ATOM      4  C   UNL     1     110.105 114.298  76.169  1.00  0.00     0.124 C 
ATOM      5  C   UNL     1     110.776 112.105  77.096  1.00  0.00     0.124 C 
ATOM      6  C   UNL     1     109.487 114.669  77.512  1.00  0.00     0.136 C 
ATOM      7  C   UNL     1     110.157 112.486  78.436  1.00  0.00     0.136 C 
ATOM      8  C   UNL     1     110.618 114.638  79.713  1.00  0.00     0.227 C 
ENDROOT
BRANCH   2   9
ATOM      9  S   UNL     1     110.396 112.250  74.413  1.00  0.00     0.243 S 
ATOM     10  O   UNL     1     111.550 111.378  74.461  1.00  0.00    -0.207 OA
ATOM     11  O   UNL     1     110.343 113.367  73.495  1.00  0.00    -0.207 OA
BRANCH   9  12
ATOM     12  C   UNL     1     108.972 111.247  74.131  1.00  0.00     0.085 A 
ATOM     13  C   UNL     1     108.674 110.756  72.859  1.00  0.00    -0.031 A 
ATOM     14  C   UNL     1     108.136 110.947  75.207  1.00  0.00     0.025 A 
ATOM     15  C   UNL     1     107.541 109.967  72.664  1.00  0.00     0.005 A 
ATOM     16  C   UNL     1     107.003 110.158  75.012  1.00  0.00    -0.050 A 
ATOM     17  C   UNL     1     106.705 109.667  73.741  1.00  0.00     0.004 A 
ATOM     18  C   UNL     1     109.547 111.059  71.686  1.00  0.00     0.046 C 
ATOM     19  C   UNL     1     106.109 109.838  76.162  1.00  0.00     0.044 C 
ENDBRANCH   9  12
ENDBRANCH   2   9
BRANCH   8  20
ATOM     20  C   UNL     1     111.207 113.807  80.825  1.00  0.00     0.138 C 
BRANCH  20  21
ATOM     21  C   UNL     1     112.451 113.113  80.363  1.00  0.00    -0.010 A 
ATOM     22  C   UNL     1     113.521 113.700  79.632  1.00  0.00     0.004 A 
ATOM     23  C   UNL     1     112.762 111.789  80.569  1.00  0.00     0.016 A 
ATOM     24  C   UNL     1     114.467 112.698  79.414  1.00  0.00     0.046 A 
ATOM     25  C   UNL     1     113.777 114.994  79.135  1.00  0.00     0.014 A 
ATOM     26  N   UNL     1     113.980 111.548  79.993  1.00  0.00    -0.358 N 
ATOM     27  C   UNL     1     115.662 112.923  78.720  1.00  0.00     0.027 A 
ATOM     28  C   UNL     1     114.966 115.235  78.439  1.00  0.00    -0.050 A 
ATOM     29  C   UNL     1     115.893 114.214  78.235  1.00  0.00     0.005 A 
ATOM     30  C   UNL     1     112.022 110.716  81.262  1.00  0.00     0.064 C 
ATOM     31  H   UNL     1     114.457 110.656  79.991  1.00  0.00     0.166 HD
ATOM     32  C   UNL     1     115.244 116.602  77.908  1.00  0.00     0.044 C 
ENDBRANCH  20  21
ENDBRANCH   8  20
TORSDOF 4
ENDMDL
MODEL 5
REMARK VINA RESULT:     -10.2      2.427      9.624
REMARK SMILES Cc1ccc(C)c(S(=O)(=O)N2CCN(C(=O)Cc3c(C)[nH]c4ccc(C)cc34)CC2)c1
REMARK SMILES IDX 16 1 11 2 14 3 12 4 30 5 13 6 29 7 15 8 8 9 9 10 10 11 7 12
REMARK SMILES IDX 5 13 31 14 4 15 2 16 3 17 6 18 1 19 17 20 18 21 28 22 19 23
REMARK SMILES IDX 22 24 27 25 21 26 23 27 25 28 24 29 20 30 26 32
REMARK H PARENT 21 31
ROOT
ATOM      1  O   UNL     1     112.618 116.039  78.471  1.00  0.00    -0.275 OA
ATOM      2  N   UNL     1     109.179 113.051  76.592  1.00  0.00    -0.194 NA
ATOM      3  N   UNL     1     110.933 114.445  78.344  1.00  0.00    -0.340 N 
ATOM      4  C   UNL     1     109.873 114.291  76.129  1.00  0.00     0.124 C 
ATOM      5  C   UNL     1     110.002 112.295  77.584  1.00  0.00     0.124 C 
ATOM      6  C   UNL     1     110.176 115.179  77.330  1.00  0.00     0.136 C 
ATOM      7  C   UNL     1     110.307 113.191  78.779  1.00  0.00     0.136 C 
ATOM      8  C   UNL     1     112.113 114.981  78.857  1.00  0.00     0.227 C 
ENDROOT
BRANCH   2   9
ATOM      9  S   UNL     1     108.468 112.102  75.354  1.00  0.00     0.243 S 
ATOM     10  O   UNL     1     109.352 111.002  75.037  1.00  0.00    -0.207 OA
ATOM     11  O   UNL     1     107.969 112.981  74.318  1.00  0.00    -0.207 OA
BRANCH   9  12
ATOM     12  C   UNL     1     107.081 111.448  76.226  1.00  0.00     0.085 A 
ATOM     13  C   UNL     1     106.396 110.326  75.758  1.00  0.00    -0.031 A 
ATOM     14  C   UNL     1     106.670 112.074  77.404  1.00  0.00     0.025 A 
ATOM     15  C   UNL     1     105.302 109.830  76.466  1.00  0.00     0.005 A 
ATOM     16  C   UNL     1     105.575 111.578  78.112  1.00  0.00    -0.050 A 
ATOM     17  C   UNL     1     104.892 110.456  77.644  1.00  0.00     0.004 A 
ATOM     18  C   UNL     1     106.810 109.633  74.501  1.00  0.00     0.046 C 
ATOM     19  C   UNL     1     105.136 112.247  79.370  1.00  0.00     0.044 C 
ENDBRANCH   9  12
ENDBRANCH   2   9
BRANCH   8  20
ATOM     20  C   UNL     1     112.792 114.195  79.950  1.00  0.00     0.138 C 
BRANCH  20  21
ATOM     21  C   UNL     1     114.167 113.780  79.525  1.00  0.00    -0.010 A 
ATOM     22  C   UNL     1     115.393 114.216  80.100  1.00  0.00     0.004 A 
ATOM     23  C   UNL     1     114.469 112.908  78.505  1.00  0.00     0.016 A 
ATOM     24  C   UNL     1     116.421 113.582  79.400  1.00  0.00     0.046 A 
ATOM     25  C   UNL     1     115.728 115.090  81.153  1.00  0.00     0.014 A 
ATOM     26  N   UNL     1     115.831 112.795  78.437  1.00  0.00    -0.358 N 
ATOM     27  C   UNL     1     117.774 113.781  79.701  1.00  0.00     0.027 A 
ATOM     28  C   UNL     1     117.076 115.299  81.465  1.00  0.00    -0.050 A 
ATOM     29  C   UNL     1     118.082 114.653  80.749  1.00  0.00     0.005 A 
ATOM     30  C   UNL     1     113.597 112.160  77.578  1.00  0.00     0.064 C 
ATOM     31  H   UNL     1     116.336 112.218  77.778  1.00  0.00     0.166 HD
ATOM     32  C   UNL     1     117.439 116.224  82.578  1.00  0.00     0.044 C 
ENDBRANCH  20  21
ENDBRANCH   8  20
TORSDOF 4
ENDMDL
MODEL 6
REMARK VINA RESULT:     -10.2      3.017      9.036
REMARK SMILES Cc1ccc(C)c(S(=O)(=O)N2CCN(C(=O)Cc3c(C)[nH]c4ccc(C)cc34)CC2)c1
REMARK SMILES IDX 16 1 11 2 14 3 12 4 30 5 13 6 29 7 15 8 8 9 9 10 10 11 7 12
REMARK SMILES IDX 5 13 31 14 4 15 2 16 3 17 6 18 1 19 17 20 18 21 28 22 19 23
REMARK SMILES IDX 22 24 27 25 21 26 23 27 25 28 24 29 20 30 26 32
REMARK H PARENT 21 31
ROOT
ATOM      1  O   UNL     1     112.494 115.968  78.268  1.00  0.00    -0.275 OA
ATOM      2  N   UNL     1     108.817 112.847  77.253  1.00  0.00    -0.194 NA
ATOM      3  N   UNL     1     110.745 114.470  78.572  1.00  0.00    -0.340 N 
ATOM      4  C   UNL     1     109.522 113.933  76.506  1.00  0.00     0.124 C 
ATOM      5  C   UNL     1     109.681 112.263  78.323  1.00  0.00     0.124 C 
ATOM      6  C   UNL     1     109.945 115.025  77.481  1.00  0.00     0.136 C 
ATOM      7  C   UNL     1     110.105 113.362  79.291  1.00  0.00     0.136 C 
ATOM      8  C   UNL     1     111.979 115.036  78.890  1.00  0.00     0.227 C 
ENDROOT
BRANCH   2   9
ATOM      9  S   UNL     1     107.983 111.709  76.281  1.00  0.00     0.243 S 
ATOM     10  O   UNL     1     106.849 112.360  75.661  1.00  0.00    -0.207 OA
ATOM     11  O   UNL     1     107.821 110.482  77.030  1.00  0.00    -0.207 OA
BRANCH   9  12
ATOM     12  C   UNL     1     109.195 111.426  75.030  1.00  0.00     0.085 A 
ATOM     13  C   UNL     1     108.947 111.753  73.696  1.00  0.00    -0.031 A 
ATOM     14  C   UNL     1     110.419 110.865  75.394  1.00  0.00     0.025 A 
ATOM     15  C   UNL     1     109.922 111.518  72.728  1.00  0.00     0.005 A 
ATOM     16  C   UNL     1     111.394 110.630  74.425  1.00  0.00    -0.050 A 
ATOM     17  C   UNL     1     111.147 110.956  73.092  1.00  0.00     0.004 A 
ATOM     18  C   UNL     1     107.647 112.355  73.273  1.00  0.00     0.046 C 
ATOM     19  C   UNL     1     112.703 110.029  74.814  1.00  0.00     0.044 C 
ENDBRANCH   9  12
ENDBRANCH   2   9
BRANCH   8  20
ATOM     20  C   UNL     1     112.705 114.449  80.074  1.00  0.00     0.138 C 
BRANCH  20  21
ATOM     21  C   UNL     1     114.015 113.860  79.651  1.00  0.00    -0.010 A 
ATOM     22  C   UNL     1     115.297 114.203  80.163  1.00  0.00     0.004 A 
ATOM     23  C   UNL     1     114.193 112.888  78.693  1.00  0.00     0.016 A 
ATOM     24  C   UNL     1     116.231 113.414  79.490  1.00  0.00     0.046 A 
ATOM     25  C   UNL     1     115.753 115.111  81.139  1.00  0.00     0.014 A 
ATOM     26  N   UNL     1     115.533 112.626  78.603  1.00  0.00    -0.358 N 
ATOM     27  C   UNL     1     117.606 113.489  79.743  1.00  0.00     0.027 A 
ATOM     28  C   UNL     1     117.125 115.197  81.404  1.00  0.00    -0.050 A 
ATOM     29  C   UNL     1     118.035 114.397  80.715  1.00  0.00     0.005 A 
ATOM     30  C   UNL     1     113.219 112.173  77.846  1.00  0.00     0.064 C 
ATOM     31  H   UNL     1     115.954 111.952  77.978  1.00  0.00     0.166 HD
ATOM     32  C   UNL     1     117.617 116.157  82.435  1.00  0.00     0.044 C 
ENDBRANCH  20  21
ENDBRANCH   8  20
TORSDOF 4
ENDMDL
MODEL 7
REMARK VINA RESULT:     -10.2      3.350      9.638
REMARK SMILES Cc1ccc(C)c(S(=O)(=O)N2CCN(C(=O)Cc3c(C)[nH]c4ccc(C)cc34)CC2)c1
REMARK SMILES IDX 16 1 11 2 14 3 12 4 30 5 13 6 29 7 15 8 8 9 9 10 10 11 7 12
REMARK SMILES IDX 5 13 31 14 4 15 2 16 3 17 6 18 1 19 17 20 18 21 28 22 19 23
REMARK SMILES IDX 22 24 27 25 21 26 23 27 25 28 24 29 20 30 26 32
REMARK H PARENT 21 31
ROOT
ATOM      1  O   UNL     1     112.508 114.387  79.573  1.00  0.00    -0.275 OA
ATOM      2  N   UNL     1     110.256 112.795  75.489  1.00  0.00    -0.194 NA
ATOM      3  N   UNL     1     111.610 112.949  77.986  1.00  0.00    -0.340 N 
ATOM      4  C   UNL     1     110.293 114.084  76.244  1.00  0.00     0.124 C 
ATOM      5  C   UNL     1     111.487 111.981  75.724  1.00  0.00     0.124 C 
ATOM      6  C   UNL     1     110.442 113.793  77.733  1.00  0.00     0.136 C 
ATOM      7  C   UNL     1     111.634 111.700  77.216  1.00  0.00     0.136 C 
ATOM      8  C   UNL     1     112.553 113.330  78.939  1.00  0.00     0.227 C 
ENDROOT
BRANCH   2   9
ATOM      9  S   UNL     1     109.758 112.917  73.854  1.00  0.00     0.243 S 
ATOM     10  O   UNL     1     110.868 112.561  72.996  1.00  0.00    -0.207 OA
ATOM     11  O   UNL     1     109.045 114.163  73.673  1.00  0.00    -0.207 OA
BRANCH   9  12
ATOM     12  C   UNL     1     108.582 111.603  73.791  1.00  0.00     0.085 A 
ATOM     13  C   UNL     1     108.295 110.947  72.593  1.00  0.00    -0.031 A 
ATOM     14  C   UNL     1     107.934 111.223  74.967  1.00  0.00     0.025 A 
ATOM     15  C   UNL     1     107.360 109.912  72.572  1.00  0.00     0.005 A 
ATOM     16  C   UNL     1     106.999 110.188  74.945  1.00  0.00    -0.050 A 
ATOM     17  C   UNL     1     106.712 109.532  73.748  1.00  0.00     0.004 A 
ATOM     18  C   UNL     1     108.971 111.329  71.317  1.00  0.00     0.046 C 
ATOM     19  C   UNL     1     106.306 109.782  76.201  1.00  0.00     0.044 C 
ENDBRANCH   9  12
ENDBRANCH   2   9
BRANCH   8  20
ATOM     20  C   UNL     1     113.686 112.367  79.189  1.00  0.00     0.138 C 
BRANCH  20  21
ATOM     21  C   UNL     1     114.986 112.953  78.731  1.00  0.00    -0.010 A 
ATOM     22  C   UNL     1     115.815 113.843  79.469  1.00  0.00     0.004 A 
ATOM     23  C   UNL     1     115.592 112.727  77.517  1.00  0.00     0.016 A 
ATOM     24  C   UNL     1     116.920 114.134  78.668  1.00  0.00     0.046 A 
ATOM     25  C   UNL     1     115.731 114.430  80.748  1.00  0.00     0.014 A 
ATOM     26  N   UNL     1     116.758 113.443  77.488  1.00  0.00    -0.358 N 
ATOM     27  C   UNL     1     117.950 114.987  79.080  1.00  0.00     0.027 A 
ATOM     28  C   UNL     1     116.754 115.285  81.175  1.00  0.00    -0.050 A 
ATOM     29  C   UNL     1     117.845 115.558  80.352  1.00  0.00     0.005 A 
ATOM     30  C   UNL     1     115.182 111.894  76.369  1.00  0.00     0.064 C 
ATOM     31  H   UNL     1     117.409 113.465  76.715  1.00  0.00     0.166 HD
ATOM     32  C   UNL     1     116.672 115.911  82.527  1.00  0.00     0.044 C 
ENDBRANCH  20  21
ENDBRANCH   8  20
TORSDOF 4
ENDMDL
MODEL 8
REMARK VINA RESULT:     -10.1      3.386      8.581
REMARK SMILES Cc1ccc(C)c(S(=O)(=O)N2CCN(C(=O)Cc3c(C)[nH]c4ccc(C)cc34)CC2)c1
REMARK SMILES IDX 16 1 11 2 14 3 12 4 30 5 13 6 29 7 15 8 8 9 9 10 10 11 7 12
REMARK SMILES IDX 5 13 31 14 4 15 2 16 3 17 6 18 1 19 17 20 18 21 28 22 19 23
REMARK SMILES IDX 22 24 27 25 21 26 23 27 25 28 24 29 20 30 26 32
REMARK H PARENT 21 31
ROOT
ATOM      1  O   UNL     1     110.962 116.091  78.490  1.00  0.00    -0.275 OA
ATOM      2  N   UNL     1     108.035 112.502  76.805  1.00  0.00    -0.194 NA
ATOM      3  N   UNL     1     109.417 114.358  78.460  1.00  0.00    -0.340 N 
ATOM      4  C   UNL     1     108.713 113.688  76.199  1.00  0.00     0.124 C 
ATOM      5  C   UNL     1     108.744 112.027  78.031  1.00  0.00     0.124 C 
ATOM      6  C   UNL     1     108.777 114.813  77.226  1.00  0.00     0.136 C 
ATOM      7  C   UNL     1     108.810 113.159  79.051  1.00  0.00     0.136 C 
ATOM      8  C   UNL     1     110.471 115.086  79.009  1.00  0.00     0.227 C 
ENDROOT
BRANCH   2   9
ATOM      9  S   UNL     1     107.578 111.275  75.700  1.00  0.00     0.243 S 
ATOM     10  O   UNL     1     106.458 111.742  74.912  1.00  0.00    -0.207 OA
ATOM     11  O   UNL     1     107.521 110.010  76.401  1.00  0.00    -0.207 OA
BRANCH   9  12
ATOM     12  C   UNL     1     109.001 111.255  74.657  1.00  0.00     0.085 A 
ATOM     13  C   UNL     1     108.939 111.714  73.341  1.00  0.00    -0.031 A 
ATOM     14  C   UNL     1     110.204 110.767  75.169  1.00  0.00     0.025 A 
ATOM     15  C   UNL     1     110.079 111.686  72.538  1.00  0.00     0.005 A 
ATOM     16  C   UNL     1     111.344 110.739  74.365  1.00  0.00    -0.050 A 
ATOM     17  C   UNL     1     111.282 111.199  73.050  1.00  0.00     0.004 A 
ATOM     18  C   UNL     1     107.667 112.242  72.761  1.00  0.00     0.046 C 
ATOM     19  C   UNL     1     112.630 110.218  74.912  1.00  0.00     0.044 C 
ENDBRANCH   9  12
ENDBRANCH   2   9
BRANCH   8  20
ATOM     20  C   UNL     1     111.024 114.587  80.320  1.00  0.00     0.138 C 
BRANCH  20  21
ATOM     21  C   UNL     1     112.193 113.680  80.088  1.00  0.00    -0.010 A 
ATOM     22  C   UNL     1     113.437 114.043  79.500  1.00  0.00     0.004 A 
ATOM     23  C   UNL     1     112.255 112.343  80.406  1.00  0.00     0.016 A 
ATOM     24  C   UNL     1     114.230 112.895  79.480  1.00  0.00     0.046 A 
ATOM     25  C   UNL     1     113.965 115.242  78.982  1.00  0.00     0.014 A 
ATOM     26  N   UNL     1     113.487 111.878  80.035  1.00  0.00    -0.358 N 
ATOM     27  C   UNL     1     115.532 112.885  78.964  1.00  0.00     0.027 A 
ATOM     28  C   UNL     1     115.265 115.248  78.464  1.00  0.00    -0.050 A 
ATOM     29  C   UNL     1     116.034 114.086  78.456  1.00  0.00     0.005 A 
ATOM     30  C   UNL     1     111.261 111.449  81.032  1.00  0.00     0.064 C 
ATOM     31  H   UNL     1     113.810 110.927  80.151  1.00  0.00     0.166 HD
ATOM     32  C   UNL     1     115.832 116.513  77.913  1.00  0.00     0.044 C 
ENDBRANCH  20  21
ENDBRANCH   8  20
TORSDOF 4
ENDMDL
MODEL 9
REMARK VINA RESULT:     -10.1      2.909      9.173
REMARK SMILES Cc1ccc(C)c(S(=O)(=O)N2CCN(C(=O)Cc3c(C)[nH]c4ccc(C)cc34)CC2)c1
REMARK SMILES IDX 16 1 11 2 14 3 12 4 30 5 13 6 29 7 15 8 8 9 9 10 10 11 7 12
REMARK SMILES IDX 5 13 31 14 4 15 2 16 3 17 6 18 1 19 17 20 18 21 28 22 19 23
REMARK SMILES IDX 22 24 27 25 21 26 23 27 25 28 24 29 20 30 26 32
REMARK H PARENT 21 31
ROOT
ATOM      1  O   UNL     1     112.554 116.043  78.314  1.00  0.00    -0.275 OA
ATOM      2  N   UNL     1     108.608 113.209  77.484  1.00  0.00    -0.194 NA
ATOM      3  N   UNL     1     110.702 114.697  78.706  1.00  0.00    -0.340 N 
ATOM      4  C   UNL     1     109.372 114.220  76.692  1.00  0.00     0.124 C 
ATOM      5  C   UNL     1     109.457 112.578  78.539  1.00  0.00     0.124 C 
ATOM      6  C   UNL     1     109.913 115.294  77.629  1.00  0.00     0.136 C 
ATOM      7  C   UNL     1     110.000 113.658  79.469  1.00  0.00     0.136 C 
ATOM      8  C   UNL     1     111.987 115.167  78.973  1.00  0.00     0.227 C 
ENDROOT
BRANCH   2   9
ATOM      9  S   UNL     1     107.654 112.124  76.563  1.00  0.00     0.243 S 
ATOM     10  O   UNL     1     106.405 112.769  76.219  1.00  0.00    -0.207 OA
ATOM     11  O   UNL     1     107.672 110.826  77.203  1.00  0.00    -0.207 OA
BRANCH   9  12
ATOM     12  C   UNL     1     108.632 112.021  75.098  1.00  0.00     0.085 A 
ATOM     13  C   UNL     1     109.767 111.211  75.042  1.00  0.00    -0.031 A 
ATOM     14  C   UNL     1     108.254 112.769  73.983  1.00  0.00     0.025 A 
ATOM     15  C   UNL     1     110.522 111.149  73.872  1.00  0.00     0.005 A 
ATOM     16  C   UNL     1     109.011 112.707  72.813  1.00  0.00    -0.050 A 
ATOM     17  C   UNL     1     110.144 111.897  72.756  1.00  0.00     0.004 A 
ATOM     18  C   UNL     1     110.199 110.397  76.218  1.00  0.00     0.046 C 
ATOM     19  C   UNL     1     108.607 113.507  71.621  1.00  0.00     0.044 C 
ENDBRANCH   9  12
ENDBRANCH   2   9
BRANCH   8  20
ATOM     20  C   UNL     1     112.703 114.547  80.146  1.00  0.00     0.138 C 
BRANCH  20  21
ATOM     21  C   UNL     1     113.983 113.907  79.704  1.00  0.00    -0.010 A 
ATOM     22  C   UNL     1     115.287 114.216  80.182  1.00  0.00     0.004 A 
ATOM     23  C   UNL     1     114.107 112.913  78.761  1.00  0.00     0.016 A 
ATOM     24  C   UNL     1     116.179 113.385  79.503  1.00  0.00     0.046 A 
ATOM     25  C   UNL     1     115.795 115.126  81.130  1.00  0.00     0.014 A 
ATOM     26  N   UNL     1     115.435 112.605  78.646  1.00  0.00    -0.358 N 
ATOM     27  C   UNL     1     117.561 113.418  79.724  1.00  0.00     0.027 A 
ATOM     28  C   UNL     1     117.174 115.171  81.363  1.00  0.00    -0.050 A 
ATOM     29  C   UNL     1     118.042 114.329  80.669  1.00  0.00     0.005 A 
ATOM     30  C   UNL     1     113.091 112.216  77.949  1.00  0.00     0.064 C 
ATOM     31  H   UNL     1     115.819 111.907  78.024  1.00  0.00     0.166 HD
ATOM     32  C   UNL     1     117.721 116.132  82.365  1.00  0.00     0.044 C 
ENDBRANCH  20  21
ENDBRANCH   8  20
TORSDOF 4
ENDMDL
MODEL 10
REMARK VINA RESULT:     -10.1      1.477      2.823
REMARK SMILES Cc1ccc(C)c(S(=O)(=O)N2CCN(C(=O)Cc3c(C)[nH]c4ccc(C)cc34)CC2)c1
REMARK SMILES IDX 16 1 11 2 14 3 12 4 30 5 13 6 29 7 15 8 8 9 9 10 10 11 7 12
REMARK SMILES IDX 5 13 31 14 4 15 2 16 3 17 6 18 1 19 17 20 18 21 28 22 19 23
REMARK SMILES IDX 22 24 27 25 21 26 23 27 25 28 24 29 20 30 26 32
REMARK H PARENT 21 31
ROOT
ATOM      1  O   UNL     1     110.071 111.270  79.606  1.00  0.00    -0.275 OA
ATOM      2  N   UNL     1     114.060 114.093  78.968  1.00  0.00    -0.194 NA
ATOM      3  N   UNL     1     111.434 113.148  79.521  1.00  0.00    -0.340 N 
ATOM      4  C   UNL     1     113.818 112.635  79.193  1.00  0.00     0.124 C 
ATOM      5  C   UNL     1     112.878 114.758  78.341  1.00  0.00     0.124 C 
ATOM      6  C   UNL     1     112.594 112.457  80.084  1.00  0.00     0.136 C 
ATOM      7  C   UNL     1     111.656 114.570  79.234  1.00  0.00     0.136 C 
ATOM      8  C   UNL     1     110.229 112.468  79.357  1.00  0.00     0.227 C 
ENDROOT
BRANCH   2   9
ATOM      9  S   UNL     1     115.577 114.486  78.274  1.00  0.00     0.243 S 
ATOM     10  O   UNL     1     115.532 115.847  77.785  1.00  0.00    -0.207 OA
ATOM     11  O   UNL     1     115.996 113.398  77.416  1.00  0.00    -0.207 OA
BRANCH   9  12
ATOM     12  C   UNL     1     116.591 114.462  79.717  1.00  0.00     0.085 A 
ATOM     13  C   UNL     1     117.677 113.593  79.824  1.00  0.00    -0.031 A 
ATOM     14  C   UNL     1     116.290 115.334  80.765  1.00  0.00     0.025 A 
ATOM     15  C   UNL     1     118.461 113.595  80.976  1.00  0.00     0.005 A 
ATOM     16  C   UNL     1     117.075 115.334  81.918  1.00  0.00    -0.050 A 
ATOM     17  C   UNL     1     118.161 114.466  82.024  1.00  0.00     0.004 A 
ATOM     18  C   UNL     1     118.026 112.648  78.720  1.00  0.00     0.046 C 
ATOM     19  C   UNL     1     116.754 116.265  83.039  1.00  0.00     0.044 C 
ENDBRANCH   9  12
ENDBRANCH   2   9
BRANCH   8  20
ATOM     20  C   UNL     1     109.064 113.273  78.839  1.00  0.00     0.138 C 
BRANCH  20  21
ATOM     21  C   UNL     1     108.314 112.505  77.796  1.00  0.00    -0.010 A 
ATOM     22  C   UNL     1     108.781 112.176  76.493  1.00  0.00     0.004 A 
ATOM     23  C   UNL     1     107.044 111.990  77.927  1.00  0.00     0.016 A 
ATOM     24  C   UNL     1     107.765 111.458  75.862  1.00  0.00     0.046 A 
ATOM     25  C   UNL     1     109.977 112.421  75.789  1.00  0.00     0.014 A 
ATOM     26  N   UNL     1     106.722 111.361  76.756  1.00  0.00    -0.358 N 
ATOM     27  C   UNL     1     107.883 110.970  74.555  1.00  0.00     0.027 A 
ATOM     28  C   UNL     1     110.110 111.940  74.481  1.00  0.00    -0.050 A 
ATOM     29  C   UNL     1     109.077 111.226  73.876  1.00  0.00     0.005 A 
ATOM     30  C   UNL     1     106.094 112.030  79.056  1.00  0.00     0.064 C 
ATOM     31  H   UNL     1     105.847 110.891  76.569  1.00  0.00     0.166 HD
ATOM     32  C   UNL     1     111.373 112.195  73.728  1.00  0.00     0.044 C 
ENDBRANCH  20  21
ENDBRANCH   8  20
TORSDOF 4
ENDMDL
MODEL 11
REMARK VINA RESULT:     -10.0      2.896      9.629
REMARK SMILES Cc1ccc(C)c(S(=O)(=O)N2CCN(C(=O)Cc3c(C)[nH]c4ccc(C)cc34)CC2)c1
REMARK SMILES IDX 16 1 11 2 14 3 12 4 30 5 13 6 29 7 15 8 8 9 9 10 10 11 7 12
REMARK SMILES IDX 5 13 31 14 4 15 2 16 3 17 6 18 1 19 17 20 18 21 28 22 19 23
REMARK SMILES IDX 22 24 27 25 21 26 23 27 25 28 24 29 20 30 26 32
REMARK H PARENT 21 31
ROOT
ATOM      1  O   UNL     1     113.960 111.959  79.674  1.00  0.00    -0.275 OA
ATOM      2  N   UNL     1     109.629 112.386  77.360  1.00  0.00    -0.194 NA
ATOM      3  N   UNL     1     112.204 112.880  78.466  1.00  0.00    -0.340 N 
ATOM      4  C   UNL     1     110.496 111.245  77.785  1.00  0.00     0.124 C 
ATOM      5  C   UNL     1     109.862 113.598  78.202  1.00  0.00     0.124 C 
ATOM      6  C   UNL     1     111.960 111.661  77.695  1.00  0.00     0.136 C 
ATOM      7  C   UNL     1     111.329 114.005  78.114  1.00  0.00     0.136 C 
ATOM      8  C   UNL     1     113.239 112.921  79.397  1.00  0.00     0.227 C 
ENDROOT
BRANCH   2   9
ATOM      9  S   UNL     1     107.986 111.993  77.078  1.00  0.00     0.243 S 
ATOM     10  O   UNL     1     107.193 113.202  77.149  1.00  0.00    -0.207 OA
ATOM     11  O   UNL     1     107.640 110.828  77.863  1.00  0.00    -0.207 OA
BRANCH   9  12
ATOM     12  C   UNL     1     108.073 111.502  75.386  1.00  0.00     0.085 A 
ATOM     13  C   UNL     1     107.241 110.502  74.880  1.00  0.00    -0.031 A 
ATOM     14  C   UNL     1     108.995 112.131  74.549  1.00  0.00     0.025 A 
ATOM     15  C   UNL     1     107.332 110.132  73.538  1.00  0.00     0.005 A 
ATOM     16  C   UNL     1     109.086 111.760  73.207  1.00  0.00    -0.050 A 
ATOM     17  C   UNL     1     108.254 110.762  72.701  1.00  0.00     0.004 A 
ATOM     18  C   UNL     1     106.243 109.808  75.749  1.00  0.00     0.046 C 
ATOM     19  C   UNL     1     110.072 112.432  72.313  1.00  0.00     0.044 C 
ENDBRANCH   9  12
ENDBRANCH   2   9
BRANCH   8  20
ATOM     20  C   UNL     1     113.468 114.238  80.095  1.00  0.00     0.138 C 
BRANCH  20  21
ATOM     21  C   UNL     1     114.653 114.945  79.513  1.00  0.00    -0.010 A 
ATOM     22  C   UNL     1     116.017 114.715  79.845  1.00  0.00     0.004 A 
ATOM     23  C   UNL     1     114.616 115.935  78.558  1.00  0.00     0.016 A 
ATOM     24  C   UNL     1     116.781 115.587  79.068  1.00  0.00     0.046 A 
ATOM     25  C   UNL     1     116.677 113.844  80.735  1.00  0.00     0.014 A 
ATOM     26  N   UNL     1     115.904 116.317  78.297  1.00  0.00    -0.358 N 
ATOM     27  C   UNL     1     118.178 115.635  79.137  1.00  0.00     0.027 A 
ATOM     28  C   UNL     1     118.074 113.880  80.815  1.00  0.00    -0.050 A 
ATOM     29  C   UNL     1     118.811 114.763  80.027  1.00  0.00     0.005 A 
ATOM     30  C   UNL     1     113.479 116.565  77.859  1.00  0.00     0.064 C 
ATOM     31  H   UNL     1     116.177 117.030  77.634  1.00  0.00     0.166 HD
ATOM     32  C   UNL     1     118.781 112.962  81.756  1.00  0.00     0.044 C 
ENDBRANCH  20  21
ENDBRANCH   8  20
TORSDOF 4
ENDMDL
MODEL 12
REMARK VINA RESULT:      -9.9      2.485      9.898
REMARK SMILES Cc1ccc(C)c(S(=O)(=O)N2CCN(C(=O)Cc3c(C)[nH]c4ccc(C)cc34)CC2)c1
REMARK SMILES IDX 16 1 11 2 14 3 12 4 30 5 13 6 29 7 15 8 8 9 9 10 10 11 7 12
REMARK SMILES IDX 5 13 31 14 4 15 2 16 3 17 6 18 1 19 17 20 18 21 28 22 19 23
REMARK SMILES IDX 22 24 27 25 21 26 23 27 25 28 24 29 20 30 26 32
REMARK H PARENT 21 31
ROOT
ATOM      1  O   UNL     1     113.941 111.220  80.742  1.00  0.00    -0.275 OA
ATOM      2  N   UNL     1     109.990 112.362  78.026  1.00  0.00    -0.194 NA
ATOM      3  N   UNL     1     112.606 111.656  78.892  1.00  0.00    -0.340 N 
ATOM      4  C   UNL     1     110.211 111.863  79.417  1.00  0.00     0.124 C 
ATOM      5  C   UNL     1     111.176 113.114  77.515  1.00  0.00     0.124 C 
ATOM      6  C   UNL     1     111.441 110.963  79.441  1.00  0.00     0.136 C 
ATOM      7  C   UNL     1     112.404 112.211  77.548  1.00  0.00     0.136 C 
ATOM      8  C   UNL     1     113.799 111.695  79.612  1.00  0.00     0.227 C 
ENDROOT
BRANCH   2   9
ATOM      9  S   UNL     1     108.473 113.108  77.747  1.00  0.00     0.243 S 
ATOM     10  O   UNL     1     108.671 114.294  76.943  1.00  0.00    -0.207 OA
ATOM     11  O   UNL     1     107.743 113.167  78.996  1.00  0.00    -0.207 OA
BRANCH   9  12
ATOM     12  C   UNL     1     107.711 111.885  76.730  1.00  0.00     0.085 A 
ATOM     13  C   UNL     1     106.686 111.073  77.219  1.00  0.00    -0.031 A 
ATOM     14  C   UNL     1     108.150 111.735  75.414  1.00  0.00     0.025 A 
ATOM     15  C   UNL     1     106.102 110.114  76.393  1.00  0.00     0.005 A 
ATOM     16  C   UNL     1     107.566 110.774  74.588  1.00  0.00    -0.050 A 
ATOM     17  C   UNL     1     106.542 109.964  75.077  1.00  0.00     0.004 A 
ATOM     18  C   UNL     1     106.192 111.208  78.622  1.00  0.00     0.046 C 
ATOM     19  C   UNL     1     108.036 110.614  73.182  1.00  0.00     0.044 C 
ENDBRANCH   9  12
ENDBRANCH   2   9
BRANCH   8  20
ATOM     20  C   UNL     1     114.970 112.366  78.941  1.00  0.00     0.138 C 
BRANCH  20  21
ATOM     21  C   UNL     1     115.440 113.537  79.748  1.00  0.00    -0.010 A 
ATOM     22  C   UNL     1     116.716 113.680  80.361  1.00  0.00     0.004 A 
ATOM     23  C   UNL     1     114.711 114.670  80.031  1.00  0.00     0.016 A 
ATOM     24  C   UNL     1     116.724 114.917  81.007  1.00  0.00     0.046 A 
ATOM     25  C   UNL     1     117.869 112.873  80.427  1.00  0.00     0.014 A 
ATOM     26  N   UNL     1     115.494 115.495  80.791  1.00  0.00    -0.358 N 
ATOM     27  C   UNL     1     117.831 115.390  81.721  1.00  0.00     0.027 A 
ATOM     28  C   UNL     1     118.985 113.332  81.137  1.00  0.00    -0.050 A 
ATOM     29  C   UNL     1     118.964 114.572  81.773  1.00  0.00     0.005 A 
ATOM     30  C   UNL     1     113.338 115.058  79.652  1.00  0.00     0.064 C 
ATOM     31  H   UNL     1     115.214 116.401  81.144  1.00  0.00     0.166 HD
ATOM     32  C   UNL     1     120.209 112.483  81.212  1.00  0.00     0.044 C 
ENDBRANCH  20  21
ENDBRANCH   8  20
TORSDOF 4
ENDMDL
MODEL 13
REMARK VINA RESULT:      -9.7      2.948      9.479
REMARK SMILES Cc1ccc(C)c(S(=O)(=O)N2CCN(C(=O)Cc3c(C)[nH]c4ccc(C)cc34)CC2)c1
REMARK SMILES IDX 16 1 11 2 14 3 12 4 30 5 13 6 29 7 15 8 8 9 9 10 10 11 7 12
REMARK SMILES IDX 5 13 31 14 4 15 2 16 3 17 6 18 1 19 17 20 18 21 28 22 19 23
REMARK SMILES IDX 22 24 27 25 21 26 23 27 25 28 24 29 20 30 26 32
REMARK H PARENT 21 31
ROOT
ATOM      1  O   UNL     1     111.305 116.397  79.007  1.00  0.00    -0.275 OA
ATOM      2  N   UNL     1     108.035 113.277  77.042  1.00  0.00    -0.194 NA
ATOM      3  N   UNL     1     109.601 114.827  78.841  1.00  0.00    -0.340 N 
ATOM      4  C   UNL     1     108.818 114.447  76.540  1.00  0.00     0.124 C 
ATOM      5  C   UNL     1     108.706 112.622  78.205  1.00  0.00     0.124 C 
ATOM      6  C   UNL     1     108.997 115.457  77.666  1.00  0.00     0.136 C 
ATOM      7  C   UNL     1     108.889 113.640  79.326  1.00  0.00     0.136 C 
ATOM      8  C   UNL     1     110.725 115.397  79.437  1.00  0.00     0.227 C 
ENDROOT
BRANCH   2   9
ATOM      9  S   UNL     1     107.454 112.209  75.834  1.00  0.00     0.243 S 
ATOM     10  O   UNL     1     108.390 111.116  75.681  1.00  0.00    -0.207 OA
ATOM     11  O   UNL     1     107.019 112.985  74.692  1.00  0.00    -0.207 OA
BRANCH   9  12
ATOM     12  C   UNL     1     106.017 111.582  76.643  1.00  0.00     0.085 A 
ATOM     13  C   UNL     1     105.690 110.227  76.588  1.00  0.00    -0.031 A 
ATOM     14  C   UNL     1     105.200 112.468  77.347  1.00  0.00     0.025 A 
ATOM     15  C   UNL     1     104.548 109.758  77.236  1.00  0.00     0.005 A 
ATOM     16  C   UNL     1     104.057 111.998  77.995  1.00  0.00    -0.050 A 
ATOM     17  C   UNL     1     103.731 110.643  77.940  1.00  0.00     0.004 A 
ATOM     18  C   UNL     1     106.543 109.252  75.844  1.00  0.00     0.046 C 
ATOM     19  C   UNL     1     103.184 112.945  78.746  1.00  0.00     0.044 C 
ENDBRANCH   9  12
ENDBRANCH   2   9
BRANCH   8  20
ATOM     20  C   UNL     1     111.240 114.726  80.685  1.00  0.00     0.138 C 
BRANCH  20  21
ATOM     21  C   UNL     1     112.275 113.700  80.343  1.00  0.00    -0.010 A 
ATOM     22  C   UNL     1     113.539 113.948  79.740  1.00  0.00     0.004 A 
ATOM     23  C   UNL     1     112.172 112.344  80.556  1.00  0.00     0.016 A 
ATOM     24  C   UNL     1     114.178 112.714  79.603  1.00  0.00     0.046 A 
ATOM     25  C   UNL     1     114.205 115.108  79.296  1.00  0.00     0.014 A 
ATOM     26  N   UNL     1     113.324 111.758  80.106  1.00  0.00    -0.358 N 
ATOM     27  C   UNL     1     115.453 112.580  79.042  1.00  0.00     0.027 A 
ATOM     28  C   UNL     1     115.481 114.991  78.733  1.00  0.00    -0.050 A 
ATOM     29  C   UNL     1     116.093 113.745  78.609  1.00  0.00     0.005 A 
ATOM     30  C   UNL     1     111.088 111.536  81.147  1.00  0.00     0.064 C 
ATOM     31  H   UNL     1     113.524 110.768  80.138  1.00  0.00     0.166 HD
ATOM     32  C   UNL     1     116.191 116.215  78.260  1.00  0.00     0.044 C 
ENDBRANCH  20  21
ENDBRANCH   8  20
TORSDOF 4
ENDMDL
MODEL 14
REMARK VINA RESULT:      -9.7      2.988      4.245
REMARK SMILES Cc1ccc(C)c(S(=O)(=O)N2CCN(C(=O)Cc3c(C)[nH]c4ccc(C)cc34)CC2)c1
REMARK SMILES IDX 16 1 11 2 14 3 12 4 30 5 13 6 29 7 15 8 8 9 9 10 10 11 7 12
REMARK SMILES IDX 5 13 31 14 4 15 2 16 3 17 6 18 1 19 17 20 18 21 28 22 19 23
REMARK SMILES IDX 22 24 27 25 21 26 23 27 25 28 24 29 20 30 26 32
REMARK H PARENT 21 31
ROOT
ATOM      1  O   UNL     1     108.924 110.013  75.424  1.00  0.00    -0.275 OA
ATOM      2  N   UNL     1     110.134 113.608  78.571  1.00  0.00    -0.194 NA
ATOM      3  N   UNL     1     109.130 111.218  77.399  1.00  0.00    -0.340 N 
ATOM      4  C   UNL     1     110.611 113.175  77.222  1.00  0.00     0.124 C 
ATOM      5  C   UNL     1     108.721 113.190  78.817  1.00  0.00     0.124 C 
ATOM      6  C   UNL     1     110.494 111.660  77.106  1.00  0.00     0.136 C 
ATOM      7  C   UNL     1     108.609 111.674  78.693  1.00  0.00     0.136 C 
ATOM      8  C   UNL     1     108.462 110.381  76.507  1.00  0.00     0.227 C 
ENDROOT
BRANCH   2   9
ATOM      9  S   UNL     1     110.506 115.225  78.997  1.00  0.00     0.243 S 
ATOM     10  O   UNL     1     109.969 115.502  80.312  1.00  0.00    -0.207 OA
ATOM     11  O   UNL     1     110.208 116.086  77.873  1.00  0.00    -0.207 OA
BRANCH   9  12
ATOM     12  C   UNL     1     112.261 115.110  79.143  1.00  0.00     0.085 A 
ATOM     13  C   UNL     1     112.855 114.203  80.021  1.00  0.00    -0.031 A 
ATOM     14  C   UNL     1     113.057 115.947  78.360  1.00  0.00     0.025 A 
ATOM     15  C   UNL     1     114.244 114.133  80.117  1.00  0.00     0.005 A 
ATOM     16  C   UNL     1     114.447 115.876  78.457  1.00  0.00    -0.050 A 
ATOM     17  C   UNL     1     115.041 114.970  79.334  1.00  0.00     0.004 A 
ATOM     18  C   UNL     1     112.031 113.293  80.873  1.00  0.00     0.046 C 
ATOM     19  C   UNL     1     115.299 116.771  77.621  1.00  0.00     0.044 C 
ENDBRANCH   9  12
ENDBRANCH   2   9
BRANCH   8  20
ATOM     20  C   UNL     1     107.089 109.914  76.920  1.00  0.00     0.138 C 
BRANCH  20  21
ATOM     21  C   UNL     1     106.095 111.028  76.801  1.00  0.00    -0.010 A 
ATOM     22  C   UNL     1     105.060 111.335  77.728  1.00  0.00     0.004 A 
ATOM     23  C   UNL     1     106.020 111.940  75.773  1.00  0.00     0.016 A 
ATOM     24  C   UNL     1     104.376 112.444  77.226  1.00  0.00     0.046 A 
ATOM     25  C   UNL     1     104.639 110.775  78.950  1.00  0.00     0.014 A 
ATOM     26  N   UNL     1     104.980 112.789  76.038  1.00  0.00    -0.358 N 
ATOM     27  C   UNL     1     103.287 113.023  77.887  1.00  0.00     0.027 A 
ATOM     28  C   UNL     1     103.551 111.342  79.623  1.00  0.00    -0.050 A 
ATOM     29  C   UNL     1     102.887 112.449  79.097  1.00  0.00     0.005 A 
ATOM     30  C   UNL     1     106.837 112.094  74.554  1.00  0.00     0.064 C 
ATOM     31  H   UNL     1     104.694 113.560  75.450  1.00  0.00     0.166 HD
ATOM     32  C   UNL     1     103.098 110.754  80.917  1.00  0.00     0.044 C 
ENDBRANCH  20  21
ENDBRANCH   8  20
TORSDOF 4
ENDMDL
MODEL 15
REMARK VINA RESULT:      -9.7      3.680      8.078
REMARK SMILES Cc1ccc(C)c(S(=O)(=O)N2CCN(C(=O)Cc3c(C)[nH]c4ccc(C)cc34)CC2)c1
REMARK SMILES IDX 16 1 11 2 14 3 12 4 30 5 13 6 29 7 15 8 8 9 9 10 10 11 7 12
REMARK SMILES IDX 5 13 31 14 4 15 2 16 3 17 6 18 1 19 17 20 18 21 28 22 19 23
REMARK SMILES IDX 22 24 27 25 21 26 23 27 25 28 24 29 20 30 26 32
REMARK H PARENT 21 31
ROOT
ATOM      1  O   UNL     1     111.338 116.518  77.290  1.00  0.00    -0.275 OA
ATOM      2  N   UNL     1     108.247 112.757  76.519  1.00  0.00    -0.194 NA
ATOM      3  N   UNL     1     109.711 114.905  77.675  1.00  0.00    -0.340 N 
ATOM      4  C   UNL     1     108.984 113.719  75.645  1.00  0.00     0.124 C 
ATOM      5  C   UNL     1     108.929 112.575  77.837  1.00  0.00     0.124 C 
ATOM      6  C   UNL     1     109.098 115.063  76.356  1.00  0.00     0.136 C 
ATOM      7  C   UNL     1     109.046 113.923  78.539  1.00  0.00     0.136 C 
ATOM      8  C   UNL     1     110.797 115.699  78.038  1.00  0.00     0.227 C 
ENDROOT
BRANCH   2   9
ATOM      9  S   UNL     1     107.736 111.312  75.753  1.00  0.00     0.243 S 
ATOM     10  O   UNL     1     106.556 111.590  74.962  1.00  0.00    -0.207 OA
ATOM     11  O   UNL     1     107.749 110.237  76.721  1.00  0.00    -0.207 OA
BRANCH   9  12
ATOM     12  C   UNL     1     109.084 111.059  74.642  1.00  0.00     0.085 A 
ATOM     13  C   UNL     1     108.905 111.131  73.260  1.00  0.00    -0.031 A 
ATOM     14  C   UNL     1     110.346 110.783  75.168  1.00  0.00     0.025 A 
ATOM     15  C   UNL     1     109.988 110.926  72.406  1.00  0.00     0.005 A 
ATOM     16  C   UNL     1     111.429 110.578  74.313  1.00  0.00    -0.050 A 
ATOM     17  C   UNL     1     111.250 110.649  72.932  1.00  0.00     0.004 A 
ATOM     18  C   UNL     1     107.567 111.425  72.665  1.00  0.00     0.046 C 
ATOM     19  C   UNL     1     112.778 110.281  74.875  1.00  0.00     0.044 C 
ENDBRANCH   9  12
ENDBRANCH   2   9
BRANCH   8  20
ATOM     20  C   UNL     1     111.322 115.524  79.441  1.00  0.00     0.138 C 
BRANCH  20  21
ATOM     21  C   UNL     1     112.518 114.624  79.447  1.00  0.00    -0.010 A 
ATOM     22  C   UNL     1     112.581 113.311  79.991  1.00  0.00     0.004 A 
ATOM     23  C   UNL     1     113.757 114.921  78.927  1.00  0.00     0.016 A 
ATOM     24  C   UNL     1     113.879 112.841  79.781  1.00  0.00     0.046 A 
ATOM     25  C   UNL     1     111.655 112.473  80.645  1.00  0.00     0.014 A 
ATOM     26  N   UNL     1     114.571 113.840  79.133  1.00  0.00    -0.358 N 
ATOM     27  C   UNL     1     114.300 111.572  80.192  1.00  0.00     0.027 A 
ATOM     28  C   UNL     1     112.061 111.201  81.062  1.00  0.00    -0.050 A 
ATOM     29  C   UNL     1     113.364 110.759  80.839  1.00  0.00     0.005 A 
ATOM     30  C   UNL     1     114.257 116.132  78.248  1.00  0.00     0.064 C 
ATOM     31  H   UNL     1     115.540 113.779  78.852  1.00  0.00     0.166 HD
ATOM     32  C   UNL     1     111.087 110.308  81.755  1.00  0.00     0.044 C 
ENDBRANCH  20  21
ENDBRANCH   8  20
TORSDOF 4
ENDMDL
