MODEL 1
REMARK VINA RESULT:      -8.1      0.000      0.000
REMARK SMILES O=C(NCC#Cc1ccccc1)N1CCC(Cc2ccccc2)CC1
REMARK SMILES IDX 1 1 13 2 3 3 16 4 15 5 24 6 14 7 25 8 2 9 4 11 5 12 6 13
REMARK SMILES IDX 7 14 8 15 12 16 9 17 11 18 10 19 17 20 18 21 19 22 23 23
REMARK SMILES IDX 20 24 22 25 21 26
REMARK H PARENT 3 10
ROOT
ATOM      1  O   UNL     1      95.455 108.579 110.268  1.00  0.00    -0.249 OA
ATOM      2  N   UNL     1      96.945 107.816 108.661  1.00  0.00    -0.325 N 
ATOM      3  N   UNL     1      97.420 107.631 110.973  1.00  0.00    -0.327 N 
ATOM      4  C   UNL     1      97.113 106.557 106.039  1.00  0.00    -0.003 C 
ATOM      5  C   UNL     1      97.959 106.071 107.223  1.00  0.00     0.025 C 
ATOM      6  C   UNL     1      95.811 107.185 106.554  1.00  0.00     0.025 C 
ATOM      7  C   UNL     1      98.206 107.186 108.241  1.00  0.00     0.121 C 
ATOM      8  C   UNL     1      96.101 108.293 107.561  1.00  0.00     0.121 C 
ATOM      9  C   UNL     1      96.532 108.043 109.987  1.00  0.00     0.318 C 
ATOM     10  H   UNL     1      98.308 107.205 110.748  1.00  0.00     0.166 HD
ENDROOT
BRANCH   3  11
ATOM     11  C   UNL     1      97.139 107.803 112.380  1.00  0.00     0.208 C 
ATOM     12  C   UNL     1      97.409 106.574 113.125  1.00  0.00    -0.076 C 
BRANCH  12  13
ATOM     13  C   UNL     1      97.630 105.566 113.738  1.00  0.00    -0.065 C 
ATOM     14  C   UNL     1      97.896 104.364 114.470  1.00  0.00     0.025 A 
ATOM     15  C   UNL     1      98.759 104.390 115.564  1.00  0.00     0.017 A 
ATOM     16  C   UNL     1      97.291 103.167 114.086  1.00  0.00     0.017 A 
ATOM     17  C   UNL     1      99.018 103.219 116.276  1.00  0.00     0.001 A 
ATOM     18  C   UNL     1      97.549 101.996 114.799  1.00  0.00     0.001 A 
ATOM     19  C   UNL     1      98.413 102.021 115.894  1.00  0.00     0.000 A 
ENDBRANCH  12  13
ENDBRANCH   3  11
BRANCH   4  20
ATOM     20  C   UNL     1      96.820 105.412 105.073  1.00  0.00     0.039 C 
BRANCH  20  21
ATOM     21  C   UNL     1      96.757 105.892 103.649  1.00  0.00    -0.048 A 
ATOM     22  C   UNL     1      95.521 106.107 103.040  1.00  0.00     0.004 A 
ATOM     23  C   UNL     1      97.934 106.119 102.937  1.00  0.00     0.004 A 
ATOM     24  C   UNL     1      95.463 106.551 101.719  1.00  0.00     0.000 A 
ATOM     25  C   UNL     1      97.876 106.563 101.616  1.00  0.00     0.000 A 
ATOM     26  C   UNL     1      96.640 106.780 101.007  1.00  0.00     0.000 A 
ENDBRANCH  20  21
ENDBRANCH   4  20
TORSDOF 4
ENDMDL
MODEL 2
REMARK VINA RESULT:      -7.5     11.958     15.903
REMARK SMILES O=C(NCC#Cc1ccccc1)N1CCC(Cc2ccccc2)CC1
REMARK SMILES IDX 1 1 13 2 3 3 16 4 15 5 24 6 14 7 25 8 2 9 4 11 5 12 6 13
REMARK SMILES IDX 7 14 8 15 12 16 9 17 11 18 10 19 17 20 18 21 19 22 23 23
REMARK SMILES IDX 20 24 22 25 21 26
REMARK H PARENT 3 10
ROOT
ATOM      1  O   UNL     1      99.483  96.160 110.266  1.00  0.00    -0.249 OA
ATOM      2  N   UNL     1     101.184  95.279 111.575  1.00  0.00    -0.325 N 
ATOM      3  N   UNL     1     100.016  93.945 110.007  1.00  0.00    -0.327 N 
ATOM      4  C   UNL     1     103.755  95.900 112.796  1.00  0.00    -0.003 C 
ATOM      5  C   UNL     1     103.528  94.602 112.011  1.00  0.00     0.025 C 
ATOM      6  C   UNL     1     102.824  96.998 112.267  1.00  0.00     0.025 C 
ATOM      7  C   UNL     1     102.058  94.182 112.020  1.00  0.00     0.121 C 
ATOM      8  C   UNL     1     101.369  96.541 112.297  1.00  0.00     0.121 C 
ATOM      9  C   UNL     1     100.182  95.194 110.592  1.00  0.00     0.318 C 
ATOM     10  H   UNL     1     100.575  93.149 110.279  1.00  0.00     0.166 HD
ENDROOT
BRANCH   3  11
ATOM     11  C   UNL     1      99.021  93.700 108.986  1.00  0.00     0.208 C 
ATOM     12  C   UNL     1      99.649  93.436 107.693  1.00  0.00    -0.076 C 
BRANCH  12  13
ATOM     13  C   UNL     1     100.163  93.219 106.629  1.00  0.00    -0.065 C 
ATOM     14  C   UNL     1     100.774  92.958 105.361  1.00  0.00     0.025 A 
ATOM     15  C   UNL     1     100.072  92.259 104.379  1.00  0.00     0.017 A 
ATOM     16  C   UNL     1     102.071  93.402 105.109  1.00  0.00     0.017 A 
ATOM     17  C   UNL     1     100.669  92.004 103.145  1.00  0.00     0.001 A 
ATOM     18  C   UNL     1     102.668  93.148 103.873  1.00  0.00     0.001 A 
ATOM     19  C   UNL     1     101.966  92.449 102.891  1.00  0.00     0.000 A 
ENDBRANCH  12  13
ENDBRANCH   3  11
BRANCH   4  20
ATOM     20  C   UNL     1     105.214  96.339 112.714  1.00  0.00     0.039 C 
BRANCH  20  21
ATOM     21  C   UNL     1     106.148  95.243 113.152  1.00  0.00    -0.048 A 
ATOM     22  C   UNL     1     106.184  94.852 114.489  1.00  0.00     0.004 A 
ATOM     23  C   UNL     1     106.977  94.620 112.220  1.00  0.00     0.004 A 
ATOM     24  C   UNL     1     107.050  93.835 114.895  1.00  0.00     0.000 A 
ATOM     25  C   UNL     1     107.843  93.604 112.625  1.00  0.00     0.000 A 
ATOM     26  C   UNL     1     107.879  93.212 113.963  1.00  0.00     0.000 A 
ENDBRANCH  20  21
ENDBRANCH   4  20
TORSDOF 4
ENDMDL
MODEL 3
REMARK VINA RESULT:      -7.3      1.952      2.845
REMARK SMILES O=C(NCC#Cc1ccccc1)N1CCC(Cc2ccccc2)CC1
REMARK SMILES IDX 1 1 13 2 3 3 16 4 15 5 24 6 14 7 25 8 2 9 4 11 5 12 6 13
REMARK SMILES IDX 7 14 8 15 12 16 9 17 11 18 10 19 17 20 18 21 19 22 23 23
REMARK SMILES IDX 20 24 22 25 21 26
REMARK H PARENT 3 10
ROOT
ATOM      1  O   UNL     1      98.696 108.060 110.364  1.00  0.00    -0.249 OA
ATOM      2  N   UNL     1      97.741 107.214 108.425  1.00  0.00    -0.325 N 
ATOM      3  N   UNL     1      96.602 108.785 109.780  1.00  0.00    -0.327 N 
ATOM      4  C   UNL     1      98.344 106.328 105.716  1.00  0.00    -0.003 C 
ATOM      5  C   UNL     1      97.180 107.283 106.013  1.00  0.00     0.025 C 
ATOM      6  C   UNL     1      99.441 106.502 106.774  1.00  0.00     0.025 C 
ATOM      7  C   UNL     1      96.655 107.113 107.439  1.00  0.00     0.121 C 
ATOM      8  C   UNL     1      98.878 106.321 108.180  1.00  0.00     0.121 C 
ATOM      9  C   UNL     1      97.745 108.024 109.575  1.00  0.00     0.318 C 
ATOM     10  H   UNL     1      95.815 108.749 109.146  1.00  0.00     0.166 HD
ENDROOT
BRANCH   3  11
ATOM     11  C   UNL     1      96.455 109.661 110.921  1.00  0.00     0.208 C 
ATOM     12  C   UNL     1      96.801 108.971 112.162  1.00  0.00    -0.076 C 
BRANCH  12  13
ATOM     13  C   UNL     1      97.085 108.406 113.183  1.00  0.00    -0.065 C 
ATOM     14  C   UNL     1      97.422 107.732 114.400  1.00  0.00     0.025 A 
ATOM     15  C   UNL     1      96.893 106.470 114.668  1.00  0.00     0.017 A 
ATOM     16  C   UNL     1      98.279 108.338 115.318  1.00  0.00     0.017 A 
ATOM     17  C   UNL     1      97.220 105.814 115.854  1.00  0.00     0.001 A 
ATOM     18  C   UNL     1      98.607 107.682 116.505  1.00  0.00     0.001 A 
ATOM     19  C   UNL     1      98.078 106.419 116.773  1.00  0.00     0.000 A 
ENDBRANCH  12  13
ENDBRANCH   3  11
BRANCH   4  20
ATOM     20  C   UNL     1      98.898 106.564 104.314  1.00  0.00     0.039 C 
BRANCH  20  21
ATOM     21  C   UNL     1      97.806 106.566 103.279  1.00  0.00    -0.048 A 
ATOM     22  C   UNL     1      96.471 106.484 103.675  1.00  0.00     0.004 A 
ATOM     23  C   UNL     1      98.128 106.650 101.926  1.00  0.00     0.004 A 
ATOM     24  C   UNL     1      95.458 106.486 102.715  1.00  0.00     0.000 A 
ATOM     25  C   UNL     1      97.117 106.652 100.966  1.00  0.00     0.000 A 
ATOM     26  C   UNL     1      95.781 106.570 101.361  1.00  0.00     0.000 A 
ENDBRANCH  20  21
ENDBRANCH   4  20
TORSDOF 4
ENDMDL
MODEL 4
REMARK VINA RESULT:      -6.8      1.769     10.116
REMARK SMILES O=C(NCC#Cc1ccccc1)N1CCC(Cc2ccccc2)CC1
REMARK SMILES IDX 1 1 13 2 3 3 16 4 15 5 24 6 14 7 25 8 2 9 4 11 5 12 6 13
REMARK SMILES IDX 7 14 8 15 12 16 9 17 11 18 10 19 17 20 18 21 19 22 23 23
REMARK SMILES IDX 20 24 22 25 21 26
REMARK H PARENT 3 10
ROOT
ATOM      1  O   UNL     1      96.199 110.253 111.777  1.00  0.00    -0.249 OA
ATOM      2  N   UNL     1      96.216 108.156 112.772  1.00  0.00    -0.325 N 
ATOM      3  N   UNL     1      95.676 108.434 110.484  1.00  0.00    -0.327 N 
ATOM      4  C   UNL     1      97.576 106.525 114.765  1.00  0.00    -0.003 C 
ATOM      5  C   UNL     1      97.257 105.988 113.364  1.00  0.00     0.025 C 
ATOM      6  C   UNL     1      97.750 108.049 114.711  1.00  0.00     0.025 C 
ATOM      7  C   UNL     1      96.051 106.695 112.746  1.00  0.00     0.121 C 
ATOM      8  C   UNL     1      96.526 108.715 114.091  1.00  0.00     0.121 C 
ATOM      9  C   UNL     1      96.043 109.031 111.684  1.00  0.00     0.318 C 
ATOM     10  H   UNL     1      95.533 107.437 110.405  1.00  0.00     0.166 HD
ENDROOT
BRANCH   3  11
ATOM     11  C   UNL     1      95.455 109.202 109.279  1.00  0.00     0.208 C 
ATOM     12  C   UNL     1      96.115 108.582 108.132  1.00  0.00    -0.076 C 
BRANCH  12  13
ATOM     13  C   UNL     1      96.656 108.074 107.187  1.00  0.00    -0.065 C 
ATOM     14  C   UNL     1      97.300 107.467 106.062  1.00  0.00     0.025 A 
ATOM     15  C   UNL     1      96.629 107.373 104.843  1.00  0.00     0.017 A 
ATOM     16  C   UNL     1      98.597 106.970 106.185  1.00  0.00     0.017 A 
ATOM     17  C   UNL     1      97.256 106.781 103.746  1.00  0.00     0.001 A 
ATOM     18  C   UNL     1      99.225 106.379 105.088  1.00  0.00     0.001 A 
ATOM     19  C   UNL     1      98.554 106.284 103.868  1.00  0.00     0.000 A 
ENDBRANCH  12  13
ENDBRANCH   3  11
BRANCH   4  20
ATOM     20  C   UNL     1      98.824 105.856 115.334  1.00  0.00     0.039 C 
BRANCH  20  21
ATOM     21  C   UNL     1      98.500 104.538 115.983  1.00  0.00    -0.048 A 
ATOM     22  C   UNL     1      99.424 103.495 115.943  1.00  0.00     0.004 A 
ATOM     23  C   UNL     1      97.274 104.359 116.623  1.00  0.00     0.004 A 
ATOM     24  C   UNL     1      99.124 102.273 116.545  1.00  0.00     0.000 A 
ATOM     25  C   UNL     1      96.972 103.138 117.224  1.00  0.00     0.000 A 
ATOM     26  C   UNL     1      97.898 102.094 117.185  1.00  0.00     0.000 A 
ENDBRANCH  20  21
ENDBRANCH   4  20
TORSDOF 4
ENDMDL
MODEL 5
REMARK VINA RESULT:      -6.7     12.504     13.643
REMARK SMILES O=C(NCC#Cc1ccccc1)N1CCC(Cc2ccccc2)CC1
REMARK SMILES IDX 1 1 13 2 3 3 16 4 15 5 24 6 14 7 25 8 2 9 4 11 5 12 6 13
REMARK SMILES IDX 7 14 8 15 12 16 9 17 11 18 10 19 17 20 18 21 19 22 23 23
REMARK SMILES IDX 20 24 22 25 21 26
REMARK H PARENT 3 10
ROOT
ATOM      1  O   UNL     1      99.010  92.685 109.599  1.00  0.00    -0.249 OA
ATOM      2  N   UNL     1      99.706  93.587 107.577  1.00  0.00    -0.325 N 
ATOM      3  N   UNL     1     100.439  94.477 109.645  1.00  0.00    -0.327 N 
ATOM      4  C   UNL     1     100.420  92.908 104.836  1.00  0.00    -0.003 C 
ATOM      5  C   UNL     1     101.287  93.845 105.687  1.00  0.00     0.025 C 
ATOM      6  C   UNL     1      99.671  91.925 105.745  1.00  0.00     0.025 C 
ATOM      7  C   UNL     1     100.469  94.551 106.769  1.00  0.00     0.121 C 
ATOM      8  C   UNL     1      98.865  92.668 106.805  1.00  0.00     0.121 C 
ATOM      9  C   UNL     1      99.675  93.525 108.982  1.00  0.00     0.318 C 
ATOM     10  H   UNL     1     100.974  95.174 109.146  1.00  0.00     0.166 HD
ENDROOT
BRANCH   3  11
ATOM     11  C   UNL     1     100.503  94.543 111.088  1.00  0.00     0.208 C 
ATOM     12  C   UNL     1     101.885  94.466 111.557  1.00  0.00    -0.076 C 
BRANCH  12  13
ATOM     13  C   UNL     1     103.020  94.402 111.946  1.00  0.00    -0.065 C 
ATOM     14  C   UNL     1     104.372  94.327 112.410  1.00  0.00     0.025 A 
ATOM     15  C   UNL     1     104.639  93.905 113.712  1.00  0.00     0.017 A 
ATOM     16  C   UNL     1     105.421  94.675 111.560  1.00  0.00     0.017 A 
ATOM     17  C   UNL     1     105.957  93.833 114.165  1.00  0.00     0.001 A 
ATOM     18  C   UNL     1     106.739  94.602 112.012  1.00  0.00     0.001 A 
ATOM     19  C   UNL     1     107.007  94.182 113.315  1.00  0.00     0.000 A 
ENDBRANCH  12  13
ENDBRANCH   3  11
BRANCH   4  20
ATOM     20  C   UNL     1     101.270  92.162 103.811  1.00  0.00     0.039 C 
BRANCH  20  21
ATOM     21  C   UNL     1     101.004  92.647 102.412  1.00  0.00    -0.048 A 
ATOM     22  C   UNL     1      99.822  93.328 102.123  1.00  0.00     0.004 A 
ATOM     23  C   UNL     1     101.940  92.416 101.405  1.00  0.00     0.004 A 
ATOM     24  C   UNL     1      99.576  93.778 100.826  1.00  0.00     0.000 A 
ATOM     25  C   UNL     1     101.695  92.865 100.108  1.00  0.00     0.000 A 
ATOM     26  C   UNL     1     100.513  93.547  99.818  1.00  0.00     0.000 A 
ENDBRANCH  20  21
ENDBRANCH   4  20
TORSDOF 4
ENDMDL
MODEL 6
REMARK VINA RESULT:      -6.5     12.322     13.602
REMARK SMILES O=C(NCC#Cc1ccccc1)N1CCC(Cc2ccccc2)CC1
REMARK SMILES IDX 1 1 13 2 3 3 16 4 15 5 24 6 14 7 25 8 2 9 4 11 5 12 6 13
REMARK SMILES IDX 7 14 8 15 12 16 9 17 11 18 10 19 17 20 18 21 19 22 23 23
REMARK SMILES IDX 20 24 22 25 21 26
REMARK H PARENT 3 10
ROOT
ATOM      1  O   UNL     1      99.456  92.876 110.025  1.00  0.00    -0.249 OA
ATOM      2  N   UNL     1      99.760  93.720 107.885  1.00  0.00    -0.325 N 
ATOM      3  N   UNL     1     100.434  94.937 109.800  1.00  0.00    -0.327 N 
ATOM      4  C   UNL     1     100.388  92.965 105.142  1.00  0.00    -0.003 C 
ATOM      5  C   UNL     1     101.082  94.146 105.833  1.00  0.00     0.025 C 
ATOM      6  C   UNL     1      99.960  91.929 106.189  1.00  0.00     0.025 C 
ATOM      7  C   UNL     1     100.213  94.750 106.937  1.00  0.00     0.121 C 
ATOM      8  C   UNL     1      99.093  92.569 107.268  1.00  0.00     0.121 C 
ATOM      9  C   UNL     1      99.858  93.782 109.287  1.00  0.00     0.318 C 
ATOM     10  H   UNL     1     100.752  95.687 109.202  1.00  0.00     0.166 HD
ENDROOT
BRANCH   3  11
ATOM     11  C   UNL     1     100.596  95.149 111.221  1.00  0.00     0.208 C 
ATOM     12  C   UNL     1     101.952  94.812 111.651  1.00  0.00    -0.076 C 
BRANCH  12  13
ATOM     13  C   UNL     1     103.066  94.535 112.007  1.00  0.00    -0.065 C 
ATOM     14  C   UNL     1     104.393  94.206 112.429  1.00  0.00     0.025 A 
ATOM     15  C   UNL     1     105.402  95.166 112.371  1.00  0.00     0.017 A 
ATOM     16  C   UNL     1     104.677  92.924 112.899  1.00  0.00     0.017 A 
ATOM     17  C   UNL     1     106.695  94.845 112.782  1.00  0.00     0.001 A 
ATOM     18  C   UNL     1     105.971  92.602 113.311  1.00  0.00     0.001 A 
ATOM     19  C   UNL     1     106.980  93.563 113.252  1.00  0.00     0.000 A 
ENDBRANCH  12  13
ENDBRANCH   3  11
BRANCH   4  20
ATOM     20  C   UNL     1     101.300  92.335 104.094  1.00  0.00     0.039 C 
BRANCH  20  21
ATOM     21  C   UNL     1     100.901  92.734 102.699  1.00  0.00    -0.048 A 
ATOM     22  C   UNL     1     101.831  92.669 101.663  1.00  0.00     0.004 A 
ATOM     23  C   UNL     1      99.601  93.169 102.444  1.00  0.00     0.004 A 
ATOM     24  C   UNL     1     101.460  93.039 100.369  1.00  0.00     0.000 A 
ATOM     25  C   UNL     1      99.230  93.540 101.152  1.00  0.00     0.000 A 
ATOM     26  C   UNL     1     100.160  93.474 100.114  1.00  0.00     0.000 A 
ENDBRANCH  20  21
ENDBRANCH   4  20
TORSDOF 4
ENDMDL
MODEL 7
REMARK VINA RESULT:      -6.4     11.784     13.176
REMARK SMILES O=C(NCC#Cc1ccccc1)N1CCC(Cc2ccccc2)CC1
REMARK SMILES IDX 1 1 13 2 3 3 16 4 15 5 24 6 14 7 25 8 2 9 4 11 5 12 6 13
REMARK SMILES IDX 7 14 8 15 12 16 9 17 11 18 10 19 17 20 18 21 19 22 23 23
REMARK SMILES IDX 20 24 22 25 21 26
REMARK H PARENT 3 10
ROOT
ATOM      1  O   UNL     1     100.268  93.597 111.185  1.00  0.00    -0.249 OA
ATOM      2  N   UNL     1      99.864  94.228 108.988  1.00  0.00    -0.325 N 
ATOM      3  N   UNL     1     100.813  95.731 110.551  1.00  0.00    -0.327 N 
ATOM      4  C   UNL     1      99.863  93.260 106.241  1.00  0.00    -0.003 C 
ATOM      5  C   UNL     1     100.518  94.593 106.627  1.00  0.00     0.025 C 
ATOM      6  C   UNL     1      99.894  92.300 107.437  1.00  0.00     0.025 C 
ATOM      7  C   UNL     1      99.884  95.196 107.881  1.00  0.00     0.121 C 
ATOM      8  C   UNL     1      99.250  92.937 108.664  1.00  0.00     0.121 C 
ATOM      9  C   UNL     1     100.314  94.459 110.301  1.00  0.00     0.318 C 
ATOM     10  H   UNL     1     100.841  96.444 109.836  1.00  0.00     0.166 HD
ENDROOT
BRANCH   3  11
ATOM     11  C   UNL     1     101.306  96.121 111.853  1.00  0.00     0.208 C 
ATOM     12  C   UNL     1     102.657  95.609 112.079  1.00  0.00    -0.076 C 
BRANCH  12  13
ATOM     13  C   UNL     1     103.766  95.188 112.267  1.00  0.00    -0.065 C 
ATOM     14  C   UNL     1     105.088  94.686 112.490  1.00  0.00     0.025 A 
ATOM     15  C   UNL     1     105.875  94.291 111.410  1.00  0.00     0.017 A 
ATOM     16  C   UNL     1     105.587  94.591 113.789  1.00  0.00     0.017 A 
ATOM     17  C   UNL     1     107.162  93.800 111.628  1.00  0.00     0.001 A 
ATOM     18  C   UNL     1     106.875  94.102 114.007  1.00  0.00     0.001 A 
ATOM     19  C   UNL     1     107.663  93.706 112.926  1.00  0.00     0.000 A 
ENDBRANCH  12  13
ENDBRANCH   3  11
BRANCH   4  20
ATOM     20  C   UNL     1     100.558  92.643 105.030  1.00  0.00     0.039 C 
BRANCH  20  21
ATOM     21  C   UNL     1     100.008  93.187 103.739  1.00  0.00    -0.048 A 
ATOM     22  C   UNL     1      98.956  94.101 103.759  1.00  0.00     0.004 A 
ATOM     23  C   UNL     1     100.551  92.774 102.522  1.00  0.00     0.004 A 
ATOM     24  C   UNL     1      98.447  94.605 102.562  1.00  0.00     0.000 A 
ATOM     25  C   UNL     1     100.042  93.277 101.325  1.00  0.00     0.000 A 
ATOM     26  C   UNL     1      98.990  94.193 101.345  1.00  0.00     0.000 A 
ENDBRANCH  20  21
ENDBRANCH   4  20
TORSDOF 4
ENDMDL
MODEL 8
REMARK VINA RESULT:      -6.4      8.205     12.826
REMARK SMILES O=C(NCC#Cc1ccccc1)N1CCC(Cc2ccccc2)CC1
REMARK SMILES IDX 1 1 13 2 3 3 16 4 15 5 24 6 14 7 25 8 2 9 4 11 5 12 6 13
REMARK SMILES IDX 7 14 8 15 12 16 9 17 11 18 10 19 17 20 18 21 19 22 23 23
REMARK SMILES IDX 20 24 22 25 21 26
REMARK H PARENT 3 10
ROOT
ATOM      1  O   UNL     1     100.066  97.161 117.178  1.00  0.00    -0.249 OA
ATOM      2  N   UNL     1     101.145  96.644 115.189  1.00  0.00    -0.325 N 
ATOM      3  N   UNL     1      99.158  97.931 115.218  1.00  0.00    -0.327 N 
ATOM      4  C   UNL     1     103.770  96.256 113.986  1.00  0.00    -0.003 C 
ATOM      5  C   UNL     1     102.694  97.119 113.314  1.00  0.00     0.025 C 
ATOM      6  C   UNL     1     103.570  96.267 115.507  1.00  0.00     0.025 C 
ATOM      7  C   UNL     1     101.284  96.693 113.725  1.00  0.00     0.121 C 
ATOM      8  C   UNL     1     102.155  95.832 115.875  1.00  0.00     0.121 C 
ATOM      9  C   UNL     1     100.121  97.242 115.945  1.00  0.00     0.318 C 
ATOM     10  H   UNL     1      99.191  97.988 114.210  1.00  0.00     0.166 HD
ENDROOT
BRANCH   3  11
ATOM     11  C   UNL     1      98.041  98.591 115.854  1.00  0.00     0.208 C 
ATOM     12  C   UNL     1      98.036 100.023 115.555  1.00  0.00    -0.076 C 
BRANCH  12  13
ATOM     13  C   UNL     1      98.031 101.199 115.311  1.00  0.00    -0.065 C 
ATOM     14  C   UNL     1      98.024 102.600 115.022  1.00  0.00     0.025 A 
ATOM     15  C   UNL     1      98.788 103.475 115.793  1.00  0.00     0.017 A 
ATOM     16  C   UNL     1      97.251 103.091 113.969  1.00  0.00     0.017 A 
ATOM     17  C   UNL     1      98.780 104.841 115.512  1.00  0.00     0.001 A 
ATOM     18  C   UNL     1      97.244 104.457 113.687  1.00  0.00     0.001 A 
ATOM     19  C   UNL     1      98.008 105.333 114.459  1.00  0.00     0.000 A 
ENDBRANCH  12  13
ENDBRANCH   3  11
BRANCH   4  20
ATOM     20  C   UNL     1     105.168  96.744 113.617  1.00  0.00     0.039 C 
BRANCH  20  21
ATOM     21  C   UNL     1     105.947  95.689 112.881  1.00  0.00    -0.048 A 
ATOM     22  C   UNL     1     105.951  95.670 111.487  1.00  0.00     0.004 A 
ATOM     23  C   UNL     1     106.664  94.728 113.593  1.00  0.00     0.004 A 
ATOM     24  C   UNL     1     106.675  94.692 110.805  1.00  0.00     0.000 A 
ATOM     25  C   UNL     1     107.387  93.749 112.912  1.00  0.00     0.000 A 
ATOM     26  C   UNL     1     107.393  93.731 111.517  1.00  0.00     0.000 A 
ENDBRANCH  20  21
ENDBRANCH   4  20
TORSDOF 4
ENDMDL
MODEL 9
REMARK VINA RESULT:      -6.4     11.739     16.113
REMARK SMILES O=C(NCC#Cc1ccccc1)N1CCC(Cc2ccccc2)CC1
REMARK SMILES IDX 1 1 13 2 3 3 16 4 15 5 24 6 14 7 25 8 2 9 4 11 5 12 6 13
REMARK SMILES IDX 7 14 8 15 12 16 9 17 11 18 10 19 17 20 18 21 19 22 23 23
REMARK SMILES IDX 20 24 22 25 21 26
REMARK H PARENT 3 10
ROOT
ATOM      1  O   UNL     1     101.402  96.667 111.124  1.00  0.00    -0.249 OA
ATOM      2  N   UNL     1     101.359  94.665 112.297  1.00  0.00    -0.325 N 
ATOM      3  N   UNL     1     100.086  94.970 110.324  1.00  0.00    -0.327 N 
ATOM      4  C   UNL     1     102.996  92.843 113.873  1.00  0.00    -0.003 C 
ATOM      5  C   UNL     1     102.084  92.339 112.747  1.00  0.00     0.025 C 
ATOM      6  C   UNL     1     103.441  94.281 113.578  1.00  0.00     0.025 C 
ATOM      7  C   UNL     1     100.904  93.282 112.506  1.00  0.00     0.121 C 
ATOM      8  C   UNL     1     102.236  95.188 113.348  1.00  0.00     0.121 C 
ATOM      9  C   UNL     1     100.979  95.512 111.239  1.00  0.00     0.318 C 
ATOM     10  H   UNL     1      99.726  94.030 110.421  1.00  0.00     0.166 HD
ENDROOT
BRANCH   3  11
ATOM     11  C   UNL     1      99.599  95.720 109.188  1.00  0.00     0.208 C 
ATOM     12  C   UNL     1      99.982  95.078 107.931  1.00  0.00    -0.076 C 
BRANCH  12  13
ATOM     13  C   UNL     1     100.296  94.554 106.897  1.00  0.00    -0.065 C 
ATOM     14  C   UNL     1     100.672  93.930 105.665  1.00  0.00     0.025 A 
ATOM     15  C   UNL     1     102.014  93.659 105.402  1.00  0.00     0.017 A 
ATOM     16  C   UNL     1      99.695  93.594 104.728  1.00  0.00     0.017 A 
ATOM     17  C   UNL     1     102.379  93.051 104.200  1.00  0.00     0.001 A 
ATOM     18  C   UNL     1     100.060  92.986 103.527  1.00  0.00     0.001 A 
ATOM     19  C   UNL     1     101.403  92.715 103.263  1.00  0.00     0.000 A 
ENDBRANCH  12  13
ENDBRANCH   3  11
BRANCH   4  20
ATOM     20  C   UNL     1     104.203  91.925 114.048  1.00  0.00     0.039 C 
BRANCH  20  21
ATOM     21  C   UNL     1     105.472  92.582 113.575  1.00  0.00    -0.048 A 
ATOM     22  C   UNL     1     105.634  92.892 112.226  1.00  0.00     0.004 A 
ATOM     23  C   UNL     1     106.484  92.878 114.486  1.00  0.00     0.004 A 
ATOM     24  C   UNL     1     106.811  93.501 111.788  1.00  0.00     0.000 A 
ATOM     25  C   UNL     1     107.661  93.486 114.049  1.00  0.00     0.000 A 
ATOM     26  C   UNL     1     107.824  93.798 112.699  1.00  0.00     0.000 A 
ENDBRANCH  20  21
ENDBRANCH   4  20
TORSDOF 4
ENDMDL
MODEL 10
REMARK VINA RESULT:      -6.3      7.973     12.570
REMARK SMILES O=C(NCC#Cc1ccccc1)N1CCC(Cc2ccccc2)CC1
REMARK SMILES IDX 1 1 13 2 3 3 16 4 15 5 24 6 14 7 25 8 2 9 4 11 5 12 6 13
REMARK SMILES IDX 7 14 8 15 12 16 9 17 11 18 10 19 17 20 18 21 19 22 23 23
REMARK SMILES IDX 20 24 22 25 21 26
REMARK H PARENT 3 10
ROOT
ATOM      1  O   UNL     1     103.357  99.598 117.369  1.00  0.00    -0.249 OA
ATOM      2  N   UNL     1     102.302  98.073 115.972  1.00  0.00    -0.325 N 
ATOM      3  N   UNL     1     101.198 100.025 116.730  1.00  0.00    -0.327 N 
ATOM      4  C   UNL     1     102.746  96.242 113.751  1.00  0.00    -0.003 C 
ATOM      5  C   UNL     1     101.567  97.224 113.764  1.00  0.00     0.025 C 
ATOM      6  C   UNL     1     103.908  96.813 114.574  1.00  0.00     0.025 C 
ATOM      7  C   UNL     1     101.153  97.596 115.188  1.00  0.00     0.121 C 
ATOM      8  C   UNL     1     103.455  97.167 115.986  1.00  0.00     0.121 C 
ATOM      9  C   UNL     1     102.355  99.256 116.732  1.00  0.00     0.318 C 
ATOM     10  H   UNL     1     100.370  99.744 116.223  1.00  0.00     0.166 HD
ENDROOT
BRANCH   3  11
ATOM     11  C   UNL     1     101.096 101.264 117.469  1.00  0.00     0.208 C 
ATOM     12  C   UNL     1     100.319 102.256 116.728  1.00  0.00    -0.076 C 
BRANCH  12  13
ATOM     13  C   UNL     1      99.680 103.073 116.122  1.00  0.00    -0.065 C 
ATOM     14  C   UNL     1      98.919 104.047 115.401  1.00  0.00     0.025 A 
ATOM     15  C   UNL     1      98.897 105.373 115.831  1.00  0.00     0.017 A 
ATOM     16  C   UNL     1      98.199 103.669 114.268  1.00  0.00     0.017 A 
ATOM     17  C   UNL     1      98.154 106.321 115.129  1.00  0.00     0.001 A 
ATOM     18  C   UNL     1      97.456 104.618 113.565  1.00  0.00     0.001 A 
ATOM     19  C   UNL     1      97.434 105.945 113.995  1.00  0.00     0.000 A 
ENDBRANCH  12  13
ENDBRANCH   3  11
BRANCH   4  20
ATOM     20  C   UNL     1     103.187  95.940 112.322  1.00  0.00     0.039 C 
BRANCH  20  21
ATOM     21  C   UNL     1     104.324  94.955 112.289  1.00  0.00    -0.048 A 
ATOM     22  C   UNL     1     105.525  95.297 111.669  1.00  0.00     0.004 A 
ATOM     23  C   UNL     1     104.176  93.700 112.879  1.00  0.00     0.004 A 
ATOM     24  C   UNL     1     106.579  94.384 111.639  1.00  0.00     0.000 A 
ATOM     25  C   UNL     1     105.229  92.786 112.849  1.00  0.00     0.000 A 
ATOM     26  C   UNL     1     106.432  93.129 112.229  1.00  0.00     0.000 A 
ENDBRANCH  20  21
ENDBRANCH   4  20
TORSDOF 4
ENDMDL
MODEL 11
REMARK VINA RESULT:      -6.3     11.998     15.573
REMARK SMILES O=C(NCC#Cc1ccccc1)N1CCC(Cc2ccccc2)CC1
REMARK SMILES IDX 1 1 13 2 3 3 16 4 15 5 24 6 14 7 25 8 2 9 4 11 5 12 6 13
REMARK SMILES IDX 7 14 8 15 12 16 9 17 11 18 10 19 17 20 18 21 19 22 23 23
REMARK SMILES IDX 20 24 22 25 21 26
REMARK H PARENT 3 10
ROOT
ATOM      1  O   UNL     1      99.215  96.104 111.169  1.00  0.00    -0.249 OA
ATOM      2  N   UNL     1     100.742  94.554 111.979  1.00  0.00    -0.325 N 
ATOM      3  N   UNL     1      99.876  94.404 109.781  1.00  0.00    -0.327 N 
ATOM      4  C   UNL     1     103.075  94.249 113.696  1.00  0.00    -0.003 C 
ATOM      5  C   UNL     1     103.023  93.638 112.289  1.00  0.00     0.025 C 
ATOM      6  C   UNL     1     102.185  95.497 113.754  1.00  0.00     0.025 C 
ATOM      7  C   UNL     1     101.587  93.358 111.844  1.00  0.00     0.121 C 
ATOM      8  C   UNL     1     100.763  95.175 113.307  1.00  0.00     0.121 C 
ATOM      9  C   UNL     1      99.900  95.091 110.988  1.00  0.00     0.318 C 
ATOM     10  H   UNL     1     100.423  93.567 109.631  1.00  0.00     0.166 HD
ENDROOT
BRANCH   3  11
ATOM     11  C   UNL     1      99.054  94.829 108.670  1.00  0.00     0.208 C 
ATOM     12  C   UNL     1      99.619  94.383 107.397  1.00  0.00    -0.076 C 
BRANCH  12  13
ATOM     13  C   UNL     1     100.081  94.018 106.350  1.00  0.00    -0.065 C 
ATOM     14  C   UNL     1     100.630  93.582 105.102  1.00  0.00     0.025 A 
ATOM     15  C   UNL     1      99.789  93.335 104.018  1.00  0.00     0.017 A 
ATOM     16  C   UNL     1     102.008  93.403 104.972  1.00  0.00     0.017 A 
ATOM     17  C   UNL     1     100.325  92.909 102.803  1.00  0.00     0.001 A 
ATOM     18  C   UNL     1     102.544  92.978 103.756  1.00  0.00     0.001 A 
ATOM     19  C   UNL     1     101.702  92.731 102.671  1.00  0.00     0.000 A 
ENDBRANCH  12  13
ENDBRANCH   3  11
BRANCH   4  20
ATOM     20  C   UNL     1     104.511  94.586 114.090  1.00  0.00     0.039 C 
BRANCH  20  21
ATOM     21  C   UNL     1     105.422  94.617 112.893  1.00  0.00    -0.048 A 
ATOM     22  C   UNL     1     106.220  93.514 112.596  1.00  0.00     0.004 A 
ATOM     23  C   UNL     1     105.468  95.750 112.082  1.00  0.00     0.004 A 
ATOM     24  C   UNL     1     107.065  93.543 111.486  1.00  0.00     0.000 A 
ATOM     25  C   UNL     1     106.312  95.781 110.972  1.00  0.00     0.000 A 
ATOM     26  C   UNL     1     107.110  94.676 110.674  1.00  0.00     0.000 A 
ENDBRANCH  20  21
ENDBRANCH   4  20
TORSDOF 4
ENDMDL
MODEL 12
REMARK VINA RESULT:      -6.2     11.424     13.114
REMARK SMILES O=C(NCC#Cc1ccccc1)N1CCC(Cc2ccccc2)CC1
REMARK SMILES IDX 1 1 13 2 3 3 16 4 15 5 24 6 14 7 25 8 2 9 4 11 5 12 6 13
REMARK SMILES IDX 7 14 8 15 12 16 9 17 11 18 10 19 17 20 18 21 19 22 23 23
REMARK SMILES IDX 20 24 22 25 21 26
REMARK H PARENT 3 10
ROOT
ATOM      1  O   UNL     1     100.471  94.998 112.471  1.00  0.00    -0.249 OA
ATOM      2  N   UNL     1      99.853  95.037 110.234  1.00  0.00    -0.325 N 
ATOM      3  N   UNL     1     101.421  96.579 111.110  1.00  0.00    -0.327 N 
ATOM      4  C   UNL     1      99.110  93.342 107.985  1.00  0.00    -0.003 C 
ATOM      5  C   UNL     1     100.143  94.468 107.840  1.00  0.00     0.025 C 
ATOM      6  C   UNL     1      99.109  92.819 109.427  1.00  0.00     0.025 C 
ATOM      7  C   UNL     1      99.920  95.578 108.868  1.00  0.00     0.121 C 
ATOM      8  C   UNL     1      98.881  93.955 110.419  1.00  0.00     0.121 C 
ATOM      9  C   UNL     1     100.576  95.502 111.348  1.00  0.00     0.318 C 
ATOM     10  H   UNL     1     101.501  97.004 110.197  1.00  0.00     0.166 HD
ENDROOT
BRANCH   3  11
ATOM     11  C   UNL     1     102.224  97.172 112.156  1.00  0.00     0.208 C 
ATOM     12  C   UNL     1     103.422  96.376 112.415  1.00  0.00    -0.076 C 
BRANCH  12  13
ATOM     13  C   UNL     1     104.407  95.723 112.630  1.00  0.00    -0.065 C 
ATOM     14  C   UNL     1     105.581  94.944 112.884  1.00  0.00     0.025 A 
ATOM     15  C   UNL     1     106.350  94.475 111.820  1.00  0.00     0.017 A 
ATOM     16  C   UNL     1     105.954  94.654 114.196  1.00  0.00     0.017 A 
ATOM     17  C   UNL     1     107.493  93.715 112.068  1.00  0.00     0.001 A 
ATOM     18  C   UNL     1     107.098  93.895 114.444  1.00  0.00     0.001 A 
ATOM     19  C   UNL     1     107.868  93.425 113.380  1.00  0.00     0.000 A 
ENDBRANCH  12  13
ENDBRANCH   3  11
BRANCH   4  20
ATOM     20  C   UNL     1      99.394  92.214 106.997  1.00  0.00     0.039 C 
BRANCH  20  21
ATOM     21  C   UNL     1      99.427  92.714 105.578  1.00  0.00    -0.048 A 
ATOM     22  C   UNL     1      98.306  93.338 105.033  1.00  0.00     0.004 A 
ATOM     23  C   UNL     1     100.578  92.552 104.809  1.00  0.00     0.004 A 
ATOM     24  C   UNL     1      98.336  93.802 103.718  1.00  0.00     0.000 A 
ATOM     25  C   UNL     1     100.609  93.015 103.493  1.00  0.00     0.000 A 
ATOM     26  C   UNL     1      99.488  93.640 102.948  1.00  0.00     0.000 A 
ENDBRANCH  20  21
ENDBRANCH   4  20
TORSDOF 4
ENDMDL
MODEL 13
REMARK VINA RESULT:      -6.2      8.628     13.243
REMARK SMILES O=C(NCC#Cc1ccccc1)N1CCC(Cc2ccccc2)CC1
REMARK SMILES IDX 1 1 13 2 3 3 16 4 15 5 24 6 14 7 25 8 2 9 4 11 5 12 6 13
REMARK SMILES IDX 7 14 8 15 12 16 9 17 11 18 10 19 17 20 18 21 19 22 23 23
REMARK SMILES IDX 20 24 22 25 21 26
REMARK H PARENT 3 10
ROOT
ATOM      1  O   UNL     1      98.538  96.682 112.934  1.00  0.00    -0.249 OA
ATOM      2  N   UNL     1     100.822  96.356 113.187  1.00  0.00    -0.325 N 
ATOM      3  N   UNL     1      99.518  97.345 114.897  1.00  0.00    -0.327 N 
ATOM      4  C   UNL     1     103.011  94.545 112.543  1.00  0.00    -0.003 C 
ATOM      5  C   UNL     1     102.814  95.101 113.959  1.00  0.00     0.025 C 
ATOM      6  C   UNL     1     101.659  94.470 111.821  1.00  0.00     0.025 C 
ATOM      7  C   UNL     1     102.079  96.441 113.947  1.00  0.00     0.121 C 
ATOM      8  C   UNL     1     100.961  95.827 111.827  1.00  0.00     0.121 C 
ATOM      9  C   UNL     1      99.556  96.785 113.627  1.00  0.00     0.318 C 
ATOM     10  H   UNL     1     100.349  97.445 115.463  1.00  0.00     0.166 HD
ENDROOT
BRANCH   3  11
ATOM     11  C   UNL     1      98.291  97.838 115.483  1.00  0.00     0.208 C 
ATOM     12  C   UNL     1      98.184  99.289 115.336  1.00  0.00    -0.076 C 
BRANCH  12  13
ATOM     13  C   UNL     1      98.094 100.481 115.217  1.00  0.00    -0.065 C 
ATOM     14  C   UNL     1      97.987 101.901 115.072  1.00  0.00     0.025 A 
ATOM     15  C   UNL     1      97.292 102.441 113.992  1.00  0.00     0.017 A 
ATOM     16  C   UNL     1      98.580 102.743 116.013  1.00  0.00     0.017 A 
ATOM     17  C   UNL     1      97.188 103.825 113.851  1.00  0.00     0.001 A 
ATOM     18  C   UNL     1      98.476 104.127 115.872  1.00  0.00     0.001 A 
ATOM     19  C   UNL     1      97.780 104.669 114.791  1.00  0.00     0.000 A 
ENDBRANCH  12  13
ENDBRANCH   3  11
BRANCH   4  20
ATOM     20  C   UNL     1     103.682  93.175 112.584  1.00  0.00     0.039 C 
BRANCH  20  21
ATOM     21  C   UNL     1     105.167  93.292 112.794  1.00  0.00    -0.048 A 
ATOM     22  C   UNL     1     105.977  93.799 111.780  1.00  0.00     0.004 A 
ATOM     23  C   UNL     1     105.733  92.890 114.004  1.00  0.00     0.004 A 
ATOM     24  C   UNL     1     107.354  93.908 111.975  1.00  0.00     0.000 A 
ATOM     25  C   UNL     1     107.109  92.997 114.200  1.00  0.00     0.000 A 
ATOM     26  C   UNL     1     107.921  93.507 113.186  1.00  0.00     0.000 A 
ENDBRANCH  20  21
ENDBRANCH   4  20
TORSDOF 4
ENDMDL
MODEL 14
REMARK VINA RESULT:      -6.2     12.496     15.939
REMARK SMILES O=C(NCC#Cc1ccccc1)N1CCC(Cc2ccccc2)CC1
REMARK SMILES IDX 1 1 13 2 3 3 16 4 15 5 24 6 14 7 25 8 2 9 4 11 5 12 6 13
REMARK SMILES IDX 7 14 8 15 12 16 9 17 11 18 10 19 17 20 18 21 19 22 23 23
REMARK SMILES IDX 20 24 22 25 21 26
REMARK H PARENT 3 10
ROOT
ATOM      1  O   UNL     1     100.419  94.393 114.203  1.00  0.00    -0.249 OA
ATOM      2  N   UNL     1     102.420  93.354 114.758  1.00  0.00    -0.325 N 
ATOM      3  N   UNL     1     100.823  92.298 113.365  1.00  0.00    -0.327 N 
ATOM      4  C   UNL     1     105.243  93.846 115.275  1.00  0.00    -0.003 C 
ATOM      5  C   UNL     1     104.778  92.716 114.348  1.00  0.00     0.025 C 
ATOM      6  C   UNL     1     104.212  94.982 115.269  1.00  0.00     0.025 C 
ATOM      7  C   UNL     1     103.371  92.234 114.701  1.00  0.00     0.121 C 
ATOM      8  C   UNL     1     102.825  94.461 115.630  1.00  0.00     0.121 C 
ATOM      9  C   UNL     1     101.171  93.416 114.113  1.00  0.00     0.318 C 
ATOM     10  H   UNL     1     101.427  91.490 113.299  1.00  0.00     0.166 HD
ENDROOT
BRANCH   3  11
ATOM     11  C   UNL     1      99.569  92.209 112.651  1.00  0.00     0.208 C 
ATOM     12  C   UNL     1      99.724  92.636 111.261  1.00  0.00    -0.076 C 
BRANCH  12  13
ATOM     13  C   UNL     1      99.848  92.986 110.119  1.00  0.00    -0.065 C 
ATOM     14  C   UNL     1      99.999  93.402 108.758  1.00  0.00     0.025 A 
ATOM     15  C   UNL     1     100.504  92.514 107.809  1.00  0.00     0.017 A 
ATOM     16  C   UNL     1      99.640  94.696 108.382  1.00  0.00     0.017 A 
ATOM     17  C   UNL     1     100.651  92.921 106.483  1.00  0.00     0.001 A 
ATOM     18  C   UNL     1      99.786  95.103 107.055  1.00  0.00     0.001 A 
ATOM     19  C   UNL     1     100.292  94.215 106.105  1.00  0.00     0.000 A 
ENDBRANCH  12  13
ENDBRANCH   3  11
BRANCH   4  20
ATOM     20  C   UNL     1     106.619  94.359 114.860  1.00  0.00     0.039 C 
BRANCH  20  21
ATOM     21  C   UNL     1     106.684  94.642 113.383  1.00  0.00    -0.048 A 
ATOM     22  C   UNL     1     106.239  95.867 112.888  1.00  0.00     0.004 A 
ATOM     23  C   UNL     1     107.186  93.678 112.511  1.00  0.00     0.004 A 
ATOM     24  C   UNL     1     106.299  96.129 111.519  1.00  0.00     0.000 A 
ATOM     25  C   UNL     1     107.246  93.939 111.142  1.00  0.00     0.000 A 
ATOM     26  C   UNL     1     106.803  95.165 110.646  1.00  0.00     0.000 A 
ENDBRANCH  20  21
ENDBRANCH   4  20
TORSDOF 4
ENDMDL
MODEL 15
REMARK VINA RESULT:      -6.1     12.195     13.113
REMARK SMILES O=C(NCC#Cc1ccccc1)N1CCC(Cc2ccccc2)CC1
REMARK SMILES IDX 1 1 13 2 3 3 16 4 15 5 24 6 14 7 25 8 2 9 4 11 5 12 6 13
REMARK SMILES IDX 7 14 8 15 12 16 9 17 11 18 10 19 17 20 18 21 19 22 23 23
REMARK SMILES IDX 20 24 22 25 21 26
REMARK H PARENT 3 10
ROOT
ATOM      1  O   UNL     1      98.328  94.763 108.601  1.00  0.00    -0.249 OA
ATOM      2  N   UNL     1      99.767  94.415 106.813  1.00  0.00    -0.325 N 
ATOM      3  N   UNL     1     100.422  93.937 109.037  1.00  0.00    -0.327 N 
ATOM      4  C   UNL     1      99.868  93.591 104.021  1.00  0.00    -0.003 C 
ATOM      5  C   UNL     1     100.841  93.026 105.065  1.00  0.00     0.025 C 
ATOM      6  C   UNL     1      98.552  93.991 104.699  1.00  0.00     0.025 C 
ATOM      7  C   UNL     1     101.050  93.995 106.229  1.00  0.00     0.121 C 
ATOM      8  C   UNL     1      98.803  94.959 105.851  1.00  0.00     0.121 C 
ATOM      9  C   UNL     1      99.430  94.394 108.179  1.00  0.00     0.318 C 
ATOM     10  H   UNL     1     101.329  93.647 108.699  1.00  0.00     0.166 HD
ENDROOT
BRANCH   3  11
ATOM     11  C   UNL     1     100.227  93.864 110.468  1.00  0.00     0.208 C 
ATOM     12  C   UNL     1     101.480  94.104 111.182  1.00  0.00    -0.076 C 
BRANCH  12  13
ATOM     13  C   UNL     1     102.509  94.301 111.770  1.00  0.00    -0.065 C 
ATOM     14  C   UNL     1     103.735  94.534 112.471  1.00  0.00     0.025 A 
ATOM     15  C   UNL     1     104.940  94.584 111.770  1.00  0.00     0.017 A 
ATOM     16  C   UNL     1     103.724  94.711 113.854  1.00  0.00     0.017 A 
ATOM     17  C   UNL     1     106.134  94.810 112.453  1.00  0.00     0.001 A 
ATOM     18  C   UNL     1     104.919  94.939 114.537  1.00  0.00     0.001 A 
ATOM     19  C   UNL     1     106.125  94.988 113.837  1.00  0.00     0.000 A 
ENDBRANCH  12  13
ENDBRANCH   3  11
BRANCH   4  20
ATOM     20  C   UNL     1      99.620  92.580 102.905  1.00  0.00     0.039 C 
BRANCH  20  21
ATOM     21  C   UNL     1     100.219  93.034 101.602  1.00  0.00    -0.048 A 
ATOM     22  C   UNL     1      99.470  93.819 100.727  1.00  0.00     0.004 A 
ATOM     23  C   UNL     1     101.523  92.669 101.270  1.00  0.00     0.004 A 
ATOM     24  C   UNL     1     100.025  94.240  99.518  1.00  0.00     0.000 A 
ATOM     25  C   UNL     1     102.079  93.089 100.062  1.00  0.00     0.000 A 
ATOM     26  C   UNL     1     101.330  93.876  99.186  1.00  0.00     0.000 A 
ENDBRANCH  20  21
ENDBRANCH   4  20
TORSDOF 4
ENDMDL
