MODEL 1
REMARK VINA RESULT:     -11.0      0.000      0.000
REMARK SMILES C[C@H](c1cccc2c1CNCC2)n1c(=O)oc2cc(S(=O)(=O)Nc3ccc(F)cn3)c(F)cc21
REMARK SMILES IDX 32 1 16 2 15 3 13 4 34 5 17 6 14 7 33 8 18 9 19 10 31 11
REMARK SMILES IDX 20 12 21 13 22 14 23 15 24 17 30 18 25 19 29 20 26 21 27 22
REMARK SMILES IDX 28 23 2 24 1 25 3 26 8 27 4 28 7 29 9 30 5 31 12 32 6 33
REMARK SMILES IDX 10 34 11 35
REMARK H PARENT 23 16 10 36
ROOT
ATOM      1  F   UNL     1     106.949 110.896  78.775  1.00  0.00    -0.205 F 
ATOM      2  O   UNL     1     109.732 115.101  76.654  1.00  0.00    -0.408 OA
ATOM      3  O   UNL     1     111.395 116.234  77.783  1.00  0.00    -0.223 OA
ATOM      4  N   UNL     1     110.264 114.448  78.778  1.00  0.00    -0.266 N 
ATOM      5  C   UNL     1     109.259 113.618  78.350  1.00  0.00     0.094 A 
ATOM      6  C   UNL     1     108.956 114.030  77.069  1.00  0.00     0.158 A 
ATOM      7  C   UNL     1     110.556 115.341  77.769  1.00  0.00     0.420 A 
ATOM      8  C   UNL     1     108.607 112.567  78.961  1.00  0.00     0.071 A 
ATOM      9  C   UNL     1     107.975 113.411  76.322  1.00  0.00     0.075 A 
ATOM     10  C   UNL     1     107.296 112.342  76.914  1.00  0.00     0.127 A 
ATOM     11  C   UNL     1     107.610 111.924  78.222  1.00  0.00     0.146 A 
ENDROOT
BRANCH  10  12
ATOM     12  S   UNL     1     106.043 111.517  76.016  1.00  0.00     0.266 S 
ATOM     13  O   UNL     1     106.188 111.884  74.614  1.00  0.00    -0.201 OA
ATOM     14  O   UNL     1     106.065 110.106  76.381  1.00  0.00    -0.201 OA
BRANCH  12  15
ATOM     15  N   UNL     1     104.603 112.248  76.616  1.00  0.00    -0.263 N 
ATOM     16  H   UNL     1     104.463 113.248  76.419  1.00  0.00     0.182 HD
BRANCH  15  17
ATOM     17  C   UNL     1     104.075 111.777  77.867  1.00  0.00     0.139 A 
ATOM     18  N   UNL     1     103.470 110.568  77.841  1.00  0.00    -0.235 NA
ATOM     19  C   UNL     1     104.204 112.554  79.008  1.00  0.00     0.051 A 
ATOM     20  C   UNL     1     102.970 110.121  79.015  1.00  0.00     0.152 A 
ATOM     21  C   UNL     1     103.678 112.060  80.196  1.00  0.00     0.045 A 
ATOM     22  C   UNL     1     103.048 110.821  80.208  1.00  0.00     0.141 A 
ATOM     23  F   UNL     1     102.532 110.319  81.336  1.00  0.00    -0.205 F 
ENDBRANCH  15  17
ENDBRANCH  12  15
ENDBRANCH  10  12
BRANCH   4  24
ATOM     24  C   UNL     1     110.913 114.393  80.076  1.00  0.00     0.121 C 
ATOM     25  C   UNL     1     111.025 115.816  80.639  1.00  0.00     0.037 C 
BRANCH  24  26
ATOM     26  C   UNL     1     112.223 113.674  80.025  1.00  0.00    -0.020 A 
ATOM     27  C   UNL     1     112.353 112.356  80.480  1.00  0.00    -0.026 A 
ATOM     28  C   UNL     1     113.324 114.350  79.500  1.00  0.00     0.006 A 
ATOM     29  C   UNL     1     113.596 111.707  80.379  1.00  0.00    -0.042 A 
ATOM     30  C   UNL     1     111.147 111.620  81.010  1.00  0.00     0.117 C 
ATOM     31  C   UNL     1     114.560 113.714  79.419  1.00  0.00     0.001 A 
ATOM     32  C   UNL     1     113.760 110.297  80.886  1.00  0.00     0.051 C 
ATOM     33  C   UNL     1     114.699 112.399  79.859  1.00  0.00     0.004 A 
ATOM     34  N   UNL     1     111.485 110.428  81.798  1.00  0.00    -0.312 NA
ATOM     35  C   UNL     1     112.421 109.578  81.064  1.00  0.00     0.086 C 
ATOM     36  H   UNL     1     111.912 110.716  82.678  1.00  0.00     0.123 HD
ENDBRANCH  24  26
ENDBRANCH   4  24
TORSDOF 5
ENDMDL
MODEL 2
REMARK VINA RESULT:     -10.4      3.681      5.842
REMARK SMILES C[C@H](c1cccc2c1CNCC2)n1c(=O)oc2cc(S(=O)(=O)Nc3ccc(F)cn3)c(F)cc21
REMARK SMILES IDX 32 1 16 2 15 3 13 4 34 5 17 6 14 7 33 8 18 9 19 10 31 11
REMARK SMILES IDX 20 12 21 13 22 14 23 15 24 17 30 18 25 19 29 20 26 21 27 22
REMARK SMILES IDX 28 23 2 24 1 25 3 26 8 27 4 28 7 29 9 30 5 31 12 32 6 33
REMARK SMILES IDX 10 34 11 35
REMARK H PARENT 23 16 10 36
ROOT
ATOM      1  F   UNL     1     110.678 112.926  80.236  1.00  0.00    -0.205 F 
ATOM      2  O   UNL     1     113.924 116.638  77.866  1.00  0.00    -0.408 OA
ATOM      3  O   UNL     1     116.225 116.475  77.811  1.00  0.00    -0.223 OA
ATOM      4  N   UNL     1     114.925 114.834  78.848  1.00  0.00    -0.266 N 
ATOM      5  C   UNL     1     113.574 114.680  79.027  1.00  0.00     0.094 A 
ATOM      6  C   UNL     1     112.992 115.778  78.427  1.00  0.00     0.158 A 
ATOM      7  C   UNL     1     115.147 116.004  78.154  1.00  0.00     0.420 A 
ATOM      8  C   UNL     1     112.830 113.698  79.647  1.00  0.00     0.071 A 
ATOM      9  C   UNL     1     111.624 115.957  78.415  1.00  0.00     0.075 A 
ATOM     10  C   UNL     1     110.843 114.977  79.035  1.00  0.00     0.127 A 
ATOM     11  C   UNL     1     111.442 113.857  79.646  1.00  0.00     0.146 A 
ENDROOT
BRANCH  10  12
ATOM     12  S   UNL     1     109.104 115.147  79.051  1.00  0.00     0.266 S 
ATOM     13  O   UNL     1     108.716 115.605  80.379  1.00  0.00    -0.201 OA
ATOM     14  O   UNL     1     108.704 115.933  77.891  1.00  0.00    -0.201 OA
BRANCH  12  15
ATOM     15  N   UNL     1     108.562 113.523  78.865  1.00  0.00    -0.263 N 
ATOM     16  H   UNL     1     108.917 112.827  79.533  1.00  0.00     0.182 HD
BRANCH  15  17
ATOM     17  C   UNL     1     108.311 113.041  77.533  1.00  0.00     0.139 A 
ATOM     18  N   UNL     1     109.389 112.940  76.724  1.00  0.00    -0.235 NA
ATOM     19  C   UNL     1     107.020 112.712  77.151  1.00  0.00     0.051 A 
ATOM     20  C   UNL     1     109.158 112.488  75.470  1.00  0.00     0.152 A 
ATOM     21  C   UNL     1     106.823 112.250  75.854  1.00  0.00     0.045 A 
ATOM     22  C   UNL     1     107.907 112.133  74.992  1.00  0.00     0.141 A 
ATOM     23  F   UNL     1     107.748 111.693  73.738  1.00  0.00    -0.205 F 
ENDBRANCH  15  17
ENDBRANCH  12  15
ENDBRANCH  10  12
BRANCH   4  24
ATOM     24  C   UNL     1     115.951 113.917  79.312  1.00  0.00     0.121 C 
ATOM     25  C   UNL     1     115.327 112.529  79.512  1.00  0.00     0.037 C 
BRANCH  24  26
ATOM     26  C   UNL     1     116.659 114.426  80.527  1.00  0.00    -0.020 A 
ATOM     27  C   UNL     1     117.940 113.976  80.871  1.00  0.00    -0.026 A 
ATOM     28  C   UNL     1     116.010 115.376  81.315  1.00  0.00     0.006 A 
ATOM     29  C   UNL     1     118.581 114.509  82.003  1.00  0.00    -0.042 A 
ATOM     30  C   UNL     1     118.649 112.977  79.990  1.00  0.00     0.117 C 
ATOM     31  C   UNL     1     116.638 115.889  82.448  1.00  0.00     0.001 A 
ATOM     32  C   UNL     1     119.950 114.019  82.400  1.00  0.00     0.051 C 
ATOM     33  C   UNL     1     117.917 115.456  82.794  1.00  0.00     0.004 A 
ATOM     34  N   UNL     1     119.778 112.308  80.648  1.00  0.00    -0.312 NA
ATOM     35  C   UNL     1     120.669 113.293  81.261  1.00  0.00     0.086 C 
ATOM     36  H   UNL     1     119.423 111.681  81.370  1.00  0.00     0.123 HD
ENDBRANCH  24  26
ENDBRANCH   4  24
TORSDOF 5
ENDMDL
MODEL 3
REMARK VINA RESULT:     -10.2      2.998      4.206
REMARK SMILES C[C@H](c1cccc2c1CNCC2)n1c(=O)oc2cc(S(=O)(=O)Nc3ccc(F)cn3)c(F)cc21
REMARK SMILES IDX 32 1 16 2 15 3 13 4 34 5 17 6 14 7 33 8 18 9 19 10 31 11
REMARK SMILES IDX 20 12 21 13 22 14 23 15 24 17 30 18 25 19 29 20 26 21 27 22
REMARK SMILES IDX 28 23 2 24 1 25 3 26 8 27 4 28 7 29 9 30 5 31 12 32 6 33
REMARK SMILES IDX 10 34 11 35
REMARK H PARENT 23 16 10 36
ROOT
ATOM      1  F   UNL     1     109.350 114.832  74.691  1.00  0.00    -0.205 F 
ATOM      2  O   UNL     1     111.303 110.918  77.975  1.00  0.00    -0.408 OA
ATOM      3  O   UNL     1     112.220 111.330  80.052  1.00  0.00    -0.223 OA
ATOM      4  N   UNL     1     111.411 113.073  78.724  1.00  0.00    -0.266 N 
ATOM      5  C   UNL     1     110.832 113.117  77.481  1.00  0.00     0.094 A 
ATOM      6  C   UNL     1     110.777 111.807  77.050  1.00  0.00     0.158 A 
ATOM      7  C   UNL     1     111.698 111.761  79.031  1.00  0.00     0.420 A 
ATOM      8  C   UNL     1     110.362 114.165  76.717  1.00  0.00     0.071 A 
ATOM      9  C   UNL     1     110.248 111.470  75.822  1.00  0.00     0.075 A 
ATOM     10  C   UNL     1     109.763 112.510  75.024  1.00  0.00     0.127 A 
ATOM     11  C   UNL     1     109.820 113.846  75.469  1.00  0.00     0.146 A 
ENDROOT
BRANCH  10  12
ATOM     12  S   UNL     1     109.079 112.145  73.458  1.00  0.00     0.266 S 
ATOM     13  O   UNL     1     109.553 113.156  72.522  1.00  0.00    -0.201 OA
ATOM     14  O   UNL     1     109.325 110.740  73.161  1.00  0.00    -0.201 OA
BRANCH  12  15
ATOM     15  N   UNL     1     107.394 112.397  73.712  1.00  0.00    -0.263 N 
ATOM     16  H   UNL     1     106.995 113.288  73.389  1.00  0.00     0.182 HD
BRANCH  15  17
ATOM     17  C   UNL     1     106.795 111.835  74.892  1.00  0.00     0.139 A 
ATOM     18  N   UNL     1     106.329 112.719  75.802  1.00  0.00    -0.235 NA
ATOM     19  C   UNL     1     106.724 110.459  75.041  1.00  0.00     0.051 A 
ATOM     20  C   UNL     1     105.765 112.196  76.914  1.00  0.00     0.152 A 
ATOM     21  C   UNL     1     106.137 109.959  76.198  1.00  0.00     0.045 A 
ATOM     22  C   UNL     1     105.647 110.837  77.158  1.00  0.00     0.141 A 
ATOM     23  F   UNL     1     105.077 110.385  78.281  1.00  0.00    -0.205 F 
ENDBRANCH  15  17
ENDBRANCH  12  15
ENDBRANCH  10  12
BRANCH   4  24
ATOM     24  C   UNL     1     111.676 114.220  79.575  1.00  0.00     0.121 C 
ATOM     25  C   UNL     1     110.344 114.879  79.956  1.00  0.00     0.037 C 
BRANCH  24  26
ATOM     26  C   UNL     1     112.649 115.172  78.955  1.00  0.00    -0.020 A 
ATOM     27  C   UNL     1     114.032 114.966  79.043  1.00  0.00    -0.026 A 
ATOM     28  C   UNL     1     112.143 116.277  78.273  1.00  0.00     0.006 A 
ATOM     29  C   UNL     1     114.908 115.868  78.415  1.00  0.00    -0.042 A 
ATOM     30  C   UNL     1     114.568 113.746  79.750  1.00  0.00     0.117 C 
ATOM     31  C   UNL     1     113.012 117.182  77.668  1.00  0.00     0.001 A 
ATOM     32  C   UNL     1     116.399 115.674  78.519  1.00  0.00     0.051 C 
ATOM     33  C   UNL     1     114.390 116.982  77.740  1.00  0.00     0.004 A 
ATOM     34  N   UNL     1     115.989 113.849  80.107  1.00  0.00    -0.312 NA
ATOM     35  C   UNL     1     116.780 114.255  78.947  1.00  0.00     0.086 C 
ATOM     36  H   UNL     1     116.099 114.540  80.849  1.00  0.00     0.123 HD
ENDBRANCH  24  26
ENDBRANCH   4  24
TORSDOF 5
ENDMDL
MODEL 4
REMARK VINA RESULT:     -10.0      4.386      9.384
REMARK SMILES C[C@H](c1cccc2c1CNCC2)n1c(=O)oc2cc(S(=O)(=O)Nc3ccc(F)cn3)c(F)cc21
REMARK SMILES IDX 32 1 16 2 15 3 13 4 34 5 17 6 14 7 33 8 18 9 19 10 31 11
REMARK SMILES IDX 20 12 21 13 22 14 23 15 24 17 30 18 25 19 29 20 26 21 27 22
REMARK SMILES IDX 28 23 2 24 1 25 3 26 8 27 4 28 7 29 9 30 5 31 12 32 6 33
REMARK SMILES IDX 10 34 11 35
REMARK H PARENT 23 16 10 36
ROOT
ATOM      1  F   UNL     1     110.430 116.217  77.237  1.00  0.00    -0.205 F 
ATOM      2  O   UNL     1     109.703 110.809  77.618  1.00  0.00    -0.408 OA
ATOM      3  O   UNL     1     108.090 109.649  76.445  1.00  0.00    -0.223 OA
ATOM      4  N   UNL     1     108.321 111.962  76.211  1.00  0.00    -0.266 N 
ATOM      5  C   UNL     1     109.169 112.883  76.772  1.00  0.00     0.094 A 
ATOM      6  C   UNL     1     109.992 112.165  77.615  1.00  0.00     0.158 A 
ATOM      7  C   UNL     1     108.631 110.716  76.711  1.00  0.00     0.420 A 
ATOM      8  C   UNL     1     109.284 114.249  76.617  1.00  0.00     0.071 A 
ATOM      9  C   UNL     1     110.982 112.777  78.356  1.00  0.00     0.075 A 
ATOM     10  C   UNL     1     111.123 114.161  78.220  1.00  0.00     0.127 A 
ATOM     11  C   UNL     1     110.281 114.890  77.357  1.00  0.00     0.146 A 
ENDROOT
BRANCH  10  12
ATOM     12  S   UNL     1     112.360 114.993  79.132  1.00  0.00     0.266 S 
ATOM     13  O   UNL     1     112.834 116.107  78.322  1.00  0.00    -0.201 OA
ATOM     14  O   UNL     1     111.847 115.263  80.469  1.00  0.00    -0.201 OA
BRANCH  12  15
ATOM     15  N   UNL     1     113.619 113.820  79.221  1.00  0.00    -0.263 N 
ATOM     16  H   UNL     1     113.418 112.950  79.729  1.00  0.00     0.182 HD
BRANCH  15  17
ATOM     17  C   UNL     1     114.977 114.288  79.291  1.00  0.00     0.139 A 
ATOM     18  N   UNL     1     115.741 114.064  78.198  1.00  0.00    -0.235 NA
ATOM     19  C   UNL     1     115.428 114.927  80.435  1.00  0.00     0.051 A 
ATOM     20  C   UNL     1     117.019 114.501  78.260  1.00  0.00     0.152 A 
ATOM     21  C   UNL     1     116.748 115.362  80.460  1.00  0.00     0.045 A 
ATOM     22  C   UNL     1     117.565 115.149  79.355  1.00  0.00     0.141 A 
ATOM     23  F   UNL     1     118.840 115.557  79.350  1.00  0.00    -0.205 F 
ENDBRANCH  15  17
ENDBRANCH  12  15
ENDBRANCH  10  12
BRANCH   4  24
ATOM     24  C   UNL     1     107.271 112.253  75.251  1.00  0.00     0.121 C 
ATOM     25  C   UNL     1     105.914 111.884  75.865  1.00  0.00     0.037 C 
BRANCH  24  26
ATOM     26  C   UNL     1     107.517 111.600  73.928  1.00  0.00    -0.020 A 
ATOM     27  C   UNL     1     108.240 112.246  72.916  1.00  0.00    -0.026 A 
ATOM     28  C   UNL     1     107.013 110.317  73.725  1.00  0.00     0.006 A 
ATOM     29  C   UNL     1     108.477 111.579  71.701  1.00  0.00    -0.042 A 
ATOM     30  C   UNL     1     108.815 113.619  73.160  1.00  0.00     0.117 C 
ATOM     31  C   UNL     1     107.231 109.665  72.513  1.00  0.00     0.001 A 
ATOM     32  C   UNL     1     109.232 112.267  70.593  1.00  0.00     0.051 C 
ATOM     33  C   UNL     1     107.957 110.293  71.503  1.00  0.00     0.004 A 
ATOM     34  N   UNL     1     109.193 114.326  71.930  1.00  0.00    -0.312 NA
ATOM     35  C   UNL     1     110.033 113.474  71.088  1.00  0.00     0.086 C 
ATOM     36  H   UNL     1     108.350 114.580  71.415  1.00  0.00     0.123 HD
ENDBRANCH  24  26
ENDBRANCH   4  24
TORSDOF 5
ENDMDL
MODEL 5
REMARK VINA RESULT:     -10.0      2.352      3.985
REMARK SMILES C[C@H](c1cccc2c1CNCC2)n1c(=O)oc2cc(S(=O)(=O)Nc3ccc(F)cn3)c(F)cc21
REMARK SMILES IDX 32 1 16 2 15 3 13 4 34 5 17 6 14 7 33 8 18 9 19 10 31 11
REMARK SMILES IDX 20 12 21 13 22 14 23 15 24 17 30 18 25 19 29 20 26 21 27 22
REMARK SMILES IDX 28 23 2 24 1 25 3 26 8 27 4 28 7 29 9 30 5 31 12 32 6 33
REMARK SMILES IDX 10 34 11 35
REMARK H PARENT 23 16 10 36
ROOT
ATOM      1  F   UNL     1     106.823 111.032  78.922  1.00  0.00    -0.205 F 
ATOM      2  O   UNL     1     109.692 115.222  76.887  1.00  0.00    -0.408 OA
ATOM      3  O   UNL     1     111.418 116.258  78.014  1.00  0.00    -0.223 OA
ATOM      4  N   UNL     1     110.253 114.473  78.970  1.00  0.00    -0.266 N 
ATOM      5  C   UNL     1     109.211 113.692  78.539  1.00  0.00     0.094 A 
ATOM      6  C   UNL     1     108.891 114.161  77.282  1.00  0.00     0.158 A 
ATOM      7  C   UNL     1     110.550 115.393  77.988  1.00  0.00     0.420 A 
ATOM      8  C   UNL     1     108.539 112.641  79.127  1.00  0.00     0.071 A 
ATOM      9  C   UNL     1     107.872 113.603  76.538  1.00  0.00     0.075 A 
ATOM     10  C   UNL     1     107.173 112.535  77.107  1.00  0.00     0.127 A 
ATOM     11  C   UNL     1     107.504 112.058  78.391  1.00  0.00     0.146 A 
ENDROOT
BRANCH  10  12
ATOM     12  S   UNL     1     105.872 111.785  76.212  1.00  0.00     0.266 S 
ATOM     13  O   UNL     1     104.876 111.333  77.173  1.00  0.00    -0.201 OA
ATOM     14  O   UNL     1     105.463 112.688  75.145  1.00  0.00    -0.201 OA
BRANCH  12  15
ATOM     15  N   UNL     1     106.632 110.395  75.533  1.00  0.00    -0.263 N 
ATOM     16  H   UNL     1     106.894 109.638  76.178  1.00  0.00     0.182 HD
BRANCH  15  17
ATOM     17  C   UNL     1     107.498 110.581  74.401  1.00  0.00     0.139 A 
ATOM     18  N   UNL     1     106.950 110.348  73.188  1.00  0.00    -0.235 NA
ATOM     19  C   UNL     1     108.812 110.978  74.596  1.00  0.00     0.051 A 
ATOM     20  C   UNL     1     107.761 110.522  72.120  1.00  0.00     0.152 A 
ATOM     21  C   UNL     1     109.615 111.146  73.473  1.00  0.00     0.045 A 
ATOM     22  C   UNL     1     109.087 110.915  72.208  1.00  0.00     0.141 A 
ATOM     23  F   UNL     1     109.835 111.068  71.109  1.00  0.00    -0.205 F 
ENDBRANCH  15  17
ENDBRANCH  12  15
ENDBRANCH  10  12
BRANCH   4  24
ATOM     24  C   UNL     1     110.931 114.349  80.249  1.00  0.00     0.121 C 
ATOM     25  C   UNL     1     111.072 115.742  80.878  1.00  0.00     0.037 C 
BRANCH  24  26
ATOM     26  C   UNL     1     112.232 113.621  80.132  1.00  0.00    -0.020 A 
ATOM     27  C   UNL     1     112.365 112.289  80.546  1.00  0.00    -0.026 A 
ATOM     28  C   UNL     1     113.320 114.302  79.589  1.00  0.00     0.006 A 
ATOM     29  C   UNL     1     113.598 111.633  80.384  1.00  0.00    -0.042 A 
ATOM     30  C   UNL     1     111.171 111.548  81.097  1.00  0.00     0.117 C 
ATOM     31  C   UNL     1     114.547 113.658  79.448  1.00  0.00     0.001 A 
ATOM     32  C   UNL     1     113.765 110.208  80.845  1.00  0.00     0.051 C 
ATOM     33  C   UNL     1     114.689 112.330  79.846  1.00  0.00     0.004 A 
ATOM     34  N   UNL     1     111.524 110.332  81.839  1.00  0.00    -0.312 NA
ATOM     35  C   UNL     1     112.426 109.495  81.050  1.00  0.00     0.086 C 
ATOM     36  H   UNL     1     111.984 110.592  82.712  1.00  0.00     0.123 HD
ENDBRANCH  24  26
ENDBRANCH   4  24
TORSDOF 5
ENDMDL
MODEL 6
REMARK VINA RESULT:      -9.9      3.450      5.470
REMARK SMILES C[C@H](c1cccc2c1CNCC2)n1c(=O)oc2cc(S(=O)(=O)Nc3ccc(F)cn3)c(F)cc21
REMARK SMILES IDX 32 1 16 2 15 3 13 4 34 5 17 6 14 7 33 8 18 9 19 10 31 11
REMARK SMILES IDX 20 12 21 13 22 14 23 15 24 17 30 18 25 19 29 20 26 21 27 22
REMARK SMILES IDX 28 23 2 24 1 25 3 26 8 27 4 28 7 29 9 30 5 31 12 32 6 33
REMARK SMILES IDX 10 34 11 35
REMARK H PARENT 23 16 10 36
ROOT
ATOM      1  F   UNL     1     107.774 114.569  77.101  1.00  0.00    -0.205 F 
ATOM      2  O   UNL     1     111.209 110.704  78.886  1.00  0.00    -0.408 OA
ATOM      3  O   UNL     1     112.940 111.111  80.356  1.00  0.00    -0.223 OA
ATOM      4  N   UNL     1     111.525 112.832  79.654  1.00  0.00    -0.266 N 
ATOM      5  C   UNL     1     110.446 112.875  78.808  1.00  0.00     0.094 A 
ATOM      6  C   UNL     1     110.274 111.582  78.358  1.00  0.00     0.158 A 
ATOM      7  C   UNL     1     111.990 111.536  79.709  1.00  0.00     0.420 A 
ATOM      8  C   UNL     1     109.626 113.910  78.408  1.00  0.00     0.071 A 
ATOM      9  C   UNL     1     109.267 111.249  77.477  1.00  0.00     0.075 A 
ATOM     10  C   UNL     1     108.419 112.276  77.054  1.00  0.00     0.127 A 
ATOM     11  C   UNL     1     108.597 113.595  77.516  1.00  0.00     0.146 A 
ENDROOT
BRANCH  10  12
ATOM     12  S   UNL     1     107.122 111.916  75.938  1.00  0.00     0.266 S 
ATOM     13  O   UNL     1     107.078 110.471  75.762  1.00  0.00    -0.201 OA
ATOM     14  O   UNL     1     105.920 112.608  76.385  1.00  0.00    -0.201 OA
BRANCH  12  15
ATOM     15  N   UNL     1     107.682 112.619  74.468  1.00  0.00    -0.263 N 
ATOM     16  H   UNL     1     106.993 113.117  73.890  1.00  0.00     0.182 HD
BRANCH  15  17
ATOM     17  C   UNL     1     108.729 111.944  73.750  1.00  0.00     0.139 A 
ATOM     18  N   UNL     1     108.332 111.035  72.831  1.00  0.00    -0.235 NA
ATOM     19  C   UNL     1     110.055 112.244  74.021  1.00  0.00     0.051 A 
ATOM     20  C   UNL     1     109.314 110.398  72.154  1.00  0.00     0.152 A 
ATOM     21  C   UNL     1     111.036 111.568  73.304  1.00  0.00     0.045 A 
ATOM     22  C   UNL     1     110.666 110.625  72.351  1.00  0.00     0.141 A 
ATOM     23  F   UNL     1     111.587 109.959  71.646  1.00  0.00    -0.205 F 
ENDBRANCH  15  17
ENDBRANCH  12  15
ENDBRANCH  10  12
BRANCH   4  24
ATOM     24  C   UNL     1     112.083 113.964  80.372  1.00  0.00     0.121 C 
ATOM     25  C   UNL     1     110.961 114.667  81.148  1.00  0.00     0.037 C 
BRANCH  24  26
ATOM     26  C   UNL     1     112.845 114.885  79.474  1.00  0.00    -0.020 A 
ATOM     27  C   UNL     1     114.236 114.793  79.339  1.00  0.00    -0.026 A 
ATOM     28  C   UNL     1     112.130 115.845  78.758  1.00  0.00     0.006 A 
ATOM     29  C   UNL     1     114.906 115.657  78.456  1.00  0.00    -0.042 A 
ATOM     30  C   UNL     1     114.996 113.725  80.089  1.00  0.00     0.117 C 
ATOM     31  C   UNL     1     112.797 116.715  77.898  1.00  0.00     0.001 A 
ATOM     32  C   UNL     1     116.406 115.586  78.317  1.00  0.00     0.051 C 
ATOM     33  C   UNL     1     114.180 116.625  77.749  1.00  0.00     0.004 A 
ATOM     34  N   UNL     1     116.439 113.979  80.172  1.00  0.00    -0.312 NA
ATOM     35  C   UNL     1     116.984 114.272  78.847  1.00  0.00     0.086 C 
ATOM     36  H   UNL     1     116.606 114.774  80.788  1.00  0.00     0.123 HD
ENDBRANCH  24  26
ENDBRANCH   4  24
TORSDOF 5
ENDMDL
MODEL 7
REMARK VINA RESULT:      -9.8      2.897      3.810
REMARK SMILES C[C@H](c1cccc2c1CNCC2)n1c(=O)oc2cc(S(=O)(=O)Nc3ccc(F)cn3)c(F)cc21
REMARK SMILES IDX 32 1 16 2 15 3 13 4 34 5 17 6 14 7 33 8 18 9 19 10 31 11
REMARK SMILES IDX 20 12 21 13 22 14 23 15 24 17 30 18 25 19 29 20 26 21 27 22
REMARK SMILES IDX 28 23 2 24 1 25 3 26 8 27 4 28 7 29 9 30 5 31 12 32 6 33
REMARK SMILES IDX 10 34 11 35
REMARK H PARENT 23 16 10 36
ROOT
ATOM      1  F   UNL     1     109.471 114.484  75.814  1.00  0.00    -0.205 F 
ATOM      2  O   UNL     1     111.451 111.104  79.633  1.00  0.00    -0.408 OA
ATOM      3  O   UNL     1     113.301 111.578  80.926  1.00  0.00    -0.223 OA
ATOM      4  N   UNL     1     112.533 113.091  79.320  1.00  0.00    -0.266 N 
ATOM      5  C   UNL     1     111.486 113.069  78.433  1.00  0.00     0.094 A 
ATOM      6  C   UNL     1     110.849 111.863  78.640  1.00  0.00     0.158 A 
ATOM      7  C   UNL     1     112.521 111.918  80.044  1.00  0.00     0.420 A 
ATOM      8  C   UNL     1     111.054 113.979  77.491  1.00  0.00     0.071 A 
ATOM      9  C   UNL     1     109.737 111.496  77.911  1.00  0.00     0.075 A 
ATOM     10  C   UNL     1     109.275 112.399  76.949  1.00  0.00     0.127 A 
ATOM     11  C   UNL     1     109.928 113.629  76.741  1.00  0.00     0.146 A 
ENDROOT
BRANCH  10  12
ATOM     12  S   UNL     1     107.868 111.991  75.994  1.00  0.00     0.266 S 
ATOM     13  O   UNL     1     106.944 113.115  76.065  1.00  0.00    -0.201 OA
ATOM     14  O   UNL     1     108.315 111.528  74.686  1.00  0.00    -0.201 OA
BRANCH  12  15
ATOM     15  N   UNL     1     107.183 110.676  76.870  1.00  0.00    -0.263 N 
ATOM     16  H   UNL     1     107.282 109.736  76.466  1.00  0.00     0.182 HD
BRANCH  15  17
ATOM     17  C   UNL     1     105.976 110.914  77.614  1.00  0.00     0.139 A 
ATOM     18  N   UNL     1     104.854 110.336  77.129  1.00  0.00    -0.235 NA
ATOM     19  C   UNL     1     106.013 111.696  78.758  1.00  0.00     0.051 A 
ATOM     20  C   UNL     1     103.716 110.557  77.825  1.00  0.00     0.152 A 
ATOM     21  C   UNL     1     104.822 111.900  79.446  1.00  0.00     0.045 A 
ATOM     22  C   UNL     1     103.647 111.324  78.977  1.00  0.00     0.141 A 
ATOM     23  F   UNL     1     102.486 111.502  79.618  1.00  0.00    -0.205 F 
ENDBRANCH  15  17
ENDBRANCH  12  15
ENDBRANCH  10  12
BRANCH   4  24
ATOM     24  C   UNL     1     113.492 114.171  79.471  1.00  0.00     0.121 C 
ATOM     25  C   UNL     1     112.988 115.399  78.700  1.00  0.00     0.037 C 
BRANCH  24  26
ATOM     26  C   UNL     1     114.876 113.758  79.083  1.00  0.00    -0.020 A 
ATOM     27  C   UNL     1     115.999 114.195  79.797  1.00  0.00    -0.026 A 
ATOM     28  C   UNL     1     115.025 112.911  77.985  1.00  0.00     0.006 A 
ATOM     29  C   UNL     1     117.278 113.753  79.418  1.00  0.00    -0.042 A 
ATOM     30  C   UNL     1     115.823 115.081  81.007  1.00  0.00     0.117 C 
ATOM     31  C   UNL     1     116.295 112.489  77.597  1.00  0.00     0.001 A 
ATOM     32  C   UNL     1     118.498 114.232  80.161  1.00  0.00     0.051 C 
ATOM     33  C   UNL     1     117.418 112.909  78.307  1.00  0.00     0.004 A 
ATOM     34  N   UNL     1     117.053 115.771  81.414  1.00  0.00    -0.312 NA
ATOM     35  C   UNL     1     118.158 114.820  81.533  1.00  0.00     0.086 C 
ATOM     36  H   UNL     1     117.290 116.476  80.717  1.00  0.00     0.123 HD
ENDBRANCH  24  26
ENDBRANCH   4  24
TORSDOF 5
ENDMDL
MODEL 8
REMARK VINA RESULT:      -9.7      0.972      2.011
REMARK SMILES C[C@H](c1cccc2c1CNCC2)n1c(=O)oc2cc(S(=O)(=O)Nc3ccc(F)cn3)c(F)cc21
REMARK SMILES IDX 32 1 16 2 15 3 13 4 34 5 17 6 14 7 33 8 18 9 19 10 31 11
REMARK SMILES IDX 20 12 21 13 22 14 23 15 24 17 30 18 25 19 29 20 26 21 27 22
REMARK SMILES IDX 28 23 2 24 1 25 3 26 8 27 4 28 7 29 9 30 5 31 12 32 6 33
REMARK SMILES IDX 10 34 11 35
REMARK H PARENT 23 16 10 36
ROOT
ATOM      1  F   UNL     1     106.871 110.771  78.780  1.00  0.00    -0.205 F 
ATOM      2  O   UNL     1     109.728 115.068  76.965  1.00  0.00    -0.408 OA
ATOM      3  O   UNL     1     111.374 116.120  78.192  1.00  0.00    -0.223 OA
ATOM      4  N   UNL     1     110.211 114.289  79.057  1.00  0.00    -0.266 N 
ATOM      5  C   UNL     1     109.209 113.493  78.562  1.00  0.00     0.094 A 
ATOM      6  C   UNL     1     108.935 113.982  77.301  1.00  0.00     0.158 A 
ATOM      7  C   UNL     1     110.530 115.237  78.109  1.00  0.00     0.420 A 
ATOM      8  C   UNL     1     108.536 112.414  79.097  1.00  0.00     0.071 A 
ATOM      9  C   UNL     1     107.965 113.415  76.500  1.00  0.00     0.075 A 
ATOM     10  C   UNL     1     107.267 112.320  77.014  1.00  0.00     0.127 A 
ATOM     11  C   UNL     1     107.550 111.824  78.302  1.00  0.00     0.146 A 
ENDROOT
BRANCH  10  12
ATOM     12  S   UNL     1     106.027 111.559  76.045  1.00  0.00     0.266 S 
ATOM     13  O   UNL     1     106.207 112.001  74.669  1.00  0.00    -0.201 OA
ATOM     14  O   UNL     1     106.027 110.130  76.331  1.00  0.00    -0.201 OA
BRANCH  12  15
ATOM     15  N   UNL     1     104.581 112.271  76.653  1.00  0.00    -0.263 N 
ATOM     16  H   UNL     1     104.431 113.270  76.464  1.00  0.00     0.182 HD
BRANCH  15  17
ATOM     17  C   UNL     1     104.058 111.784  77.901  1.00  0.00     0.139 A 
ATOM     18  N   UNL     1     103.478 110.564  77.868  1.00  0.00    -0.235 NA
ATOM     19  C   UNL     1     104.169 112.559  79.044  1.00  0.00     0.051 A 
ATOM     20  C   UNL     1     102.985 110.101  79.039  1.00  0.00     0.152 A 
ATOM     21  C   UNL     1     103.650 112.049  80.229  1.00  0.00     0.045 A 
ATOM     22  C   UNL     1     103.045 110.798  80.235  1.00  0.00     0.141 A 
ATOM     23  F   UNL     1     102.536 110.282  81.359  1.00  0.00    -0.205 F 
ENDBRANCH  15  17
ENDBRANCH  12  15
ENDBRANCH  10  12
BRANCH   4  24
ATOM     24  C   UNL     1     110.832 114.154  80.363  1.00  0.00     0.121 C 
ATOM     25  C   UNL     1     111.332 115.529  80.824  1.00  0.00     0.037 C 
BRANCH  24  26
ATOM     26  C   UNL     1     111.897 113.104  80.377  1.00  0.00    -0.020 A 
ATOM     27  C   UNL     1     113.201 113.378  79.945  1.00  0.00    -0.026 A 
ATOM     28  C   UNL     1     111.562 111.834  80.844  1.00  0.00     0.006 A 
ATOM     29  C   UNL     1     114.179 112.370  80.010  1.00  0.00    -0.042 A 
ATOM     30  C   UNL     1     113.564 114.767  79.479  1.00  0.00     0.117 C 
ATOM     31  C   UNL     1     112.526 110.829  80.889  1.00  0.00     0.001 A 
ATOM     32  C   UNL     1     115.581 112.641  79.527  1.00  0.00     0.051 C 
ATOM     33  C   UNL     1     113.829 111.093  80.471  1.00  0.00     0.004 A 
ATOM     34  N   UNL     1     114.809 114.821  78.703  1.00  0.00    -0.312 NA
ATOM     35  C   UNL     1     115.886 114.136  79.417  1.00  0.00     0.086 C 
ATOM     36  H   UNL     1     114.663 114.368  77.801  1.00  0.00     0.123 HD
ENDBRANCH  24  26
ENDBRANCH   4  24
TORSDOF 5
ENDMDL
MODEL 9
REMARK VINA RESULT:      -9.6      2.446      2.974
REMARK SMILES C[C@H](c1cccc2c1CNCC2)n1c(=O)oc2cc(S(=O)(=O)Nc3ccc(F)cn3)c(F)cc21
REMARK SMILES IDX 32 1 16 2 15 3 13 4 34 5 17 6 14 7 33 8 18 9 19 10 31 11
REMARK SMILES IDX 20 12 21 13 22 14 23 15 24 17 30 18 25 19 29 20 26 21 27 22
REMARK SMILES IDX 28 23 2 24 1 25 3 26 8 27 4 28 7 29 9 30 5 31 12 32 6 33
REMARK SMILES IDX 10 34 11 35
REMARK H PARENT 23 16 10 36
ROOT
ATOM      1  F   UNL     1     109.802 110.232  75.706  1.00  0.00    -0.205 F 
ATOM      2  O   UNL     1     110.122 115.641  76.461  1.00  0.00    -0.408 OA
ATOM      3  O   UNL     1     110.567 116.624  78.500  1.00  0.00    -0.223 OA
ATOM      4  N   UNL     1     110.452 114.301  78.281  1.00  0.00    -0.266 N 
ATOM      5  C   UNL     1     110.209 113.468  77.218  1.00  0.00     0.094 A 
ATOM      6  C   UNL     1     110.014 114.298  76.133  1.00  0.00     0.158 A 
ATOM      7  C   UNL     1     110.402 115.605  77.839  1.00  0.00     0.420 A 
ATOM      8  C   UNL     1     110.146 112.094  77.117  1.00  0.00     0.071 A 
ATOM      9  C   UNL     1     109.741 113.796  74.877  1.00  0.00     0.075 A 
ATOM     10  C   UNL     1     109.671 112.407  74.743  1.00  0.00     0.127 A 
ATOM     11  C   UNL     1     109.872 111.563  75.853  1.00  0.00     0.146 A 
ENDROOT
BRANCH  10  12
ATOM     12  S   UNL     1     109.330 111.711  73.176  1.00  0.00     0.266 S 
ATOM     13  O   UNL     1     109.717 112.687  72.165  1.00  0.00    -0.201 OA
ATOM     14  O   UNL     1     109.912 110.376  73.124  1.00  0.00    -0.201 OA
BRANCH  12  15
ATOM     15  N   UNL     1     107.612 111.594  73.179  1.00  0.00    -0.263 N 
ATOM     16  H   UNL     1     107.095 112.208  72.536  1.00  0.00     0.182 HD
BRANCH  15  17
ATOM     17  C   UNL     1     106.955 111.297  74.423  1.00  0.00     0.139 A 
ATOM     18  N   UNL     1     106.483 112.357  75.116  1.00  0.00    -0.235 NA
ATOM     19  C   UNL     1     106.838 109.981  74.844  1.00  0.00     0.051 A 
ATOM     20  C   UNL     1     105.865 112.083  76.287  1.00  0.00     0.152 A 
ATOM     21  C   UNL     1     106.196 109.739  76.054  1.00  0.00     0.045 A 
ATOM     22  C   UNL     1     105.698 110.805  76.795  1.00  0.00     0.141 A 
ATOM     23  F   UNL     1     105.076 110.603  77.962  1.00  0.00    -0.205 F 
ENDBRANCH  15  17
ENDBRANCH  12  15
ENDBRANCH  10  12
BRANCH   4  24
ATOM     24  C   UNL     1     110.718 113.877  79.645  1.00  0.00     0.121 C 
ATOM     25  C   UNL     1     110.449 115.052  80.595  1.00  0.00     0.037 C 
BRANCH  24  26
ATOM     26  C   UNL     1     112.087 113.295  79.800  1.00  0.00    -0.020 A 
ATOM     27  C   UNL     1     112.281 112.012  80.330  1.00  0.00    -0.026 A 
ATOM     28  C   UNL     1     113.177 114.062  79.393  1.00  0.00     0.006 A 
ATOM     29  C   UNL     1     113.583 111.491  80.424  1.00  0.00    -0.042 A 
ATOM     30  C   UNL     1     111.091 111.175  80.731  1.00  0.00     0.117 C 
ATOM     31  C   UNL     1     114.469 113.553  79.505  1.00  0.00     0.001 A 
ATOM     32  C   UNL     1     113.812 110.123  81.013  1.00  0.00     0.051 C 
ATOM     33  C   UNL     1     114.674 112.274  80.022  1.00  0.00     0.004 A 
ATOM     34  N   UNL     1     111.433 110.051  81.612  1.00  0.00    -0.312 NA
ATOM     35  C   UNL     1     112.538 109.277  81.048  1.00  0.00     0.086 C 
ATOM     36  H   UNL     1     111.707 110.411  82.526  1.00  0.00     0.123 HD
ENDBRANCH  24  26
ENDBRANCH   4  24
TORSDOF 5
ENDMDL
MODEL 10
REMARK VINA RESULT:      -9.6      1.933      2.879
REMARK SMILES C[C@H](c1cccc2c1CNCC2)n1c(=O)oc2cc(S(=O)(=O)Nc3ccc(F)cn3)c(F)cc21
REMARK SMILES IDX 32 1 16 2 15 3 13 4 34 5 17 6 14 7 33 8 18 9 19 10 31 11
REMARK SMILES IDX 20 12 21 13 22 14 23 15 24 17 30 18 25 19 29 20 26 21 27 22
REMARK SMILES IDX 28 23 2 24 1 25 3 26 8 27 4 28 7 29 9 30 5 31 12 32 6 33
REMARK SMILES IDX 10 34 11 35
REMARK H PARENT 23 16 10 36
ROOT
ATOM      1  F   UNL     1     109.266 110.177  76.128  1.00  0.00    -0.205 F 
ATOM      2  O   UNL     1     108.604 114.529  79.375  1.00  0.00    -0.408 OA
ATOM      3  O   UNL     1     110.303 115.463  80.625  1.00  0.00    -0.223 OA
ATOM      4  N   UNL     1     110.688 113.602  79.266  1.00  0.00    -0.266 N 
ATOM      5  C   UNL     1     109.884 112.860  78.439  1.00  0.00     0.094 A 
ATOM      6  C   UNL     1     108.634 113.438  78.520  1.00  0.00     0.158 A 
ATOM      7  C   UNL     1     109.932 114.605  79.833  1.00  0.00     0.420 A 
ATOM      8  C   UNL     1     110.139 111.761  77.645  1.00  0.00     0.071 A 
ATOM      9  C   UNL     1     107.560 112.944  77.808  1.00  0.00     0.075 A 
ATOM     10  C   UNL     1     107.787 111.830  76.995  1.00  0.00     0.127 A 
ATOM     11  C   UNL     1     109.066 111.244  76.914  1.00  0.00     0.146 A 
ENDROOT
BRANCH  10  12
ATOM     12  S   UNL     1     106.466 111.160  76.068  1.00  0.00     0.266 S 
ATOM     13  O   UNL     1     106.694 111.490  74.667  1.00  0.00    -0.201 OA
ATOM     14  O   UNL     1     106.299 109.761  76.443  1.00  0.00    -0.201 OA
BRANCH  12  15
ATOM     15  N   UNL     1     105.113 112.073  76.620  1.00  0.00    -0.263 N 
ATOM     16  H   UNL     1     105.148 113.092  76.494  1.00  0.00     0.182 HD
BRANCH  15  17
ATOM     17  C   UNL     1     104.416 111.611  77.790  1.00  0.00     0.139 A 
ATOM     18  N   UNL     1     103.593 110.553  77.614  1.00  0.00    -0.235 NA
ATOM     19  C   UNL     1     104.612 112.247  79.006  1.00  0.00     0.051 A 
ATOM     20  C   UNL     1     102.935 110.115  78.711  1.00  0.00     0.152 A 
ATOM     21  C   UNL     1     103.918 111.767  80.111  1.00  0.00     0.045 A 
ATOM     22  C   UNL     1     103.061 110.681  79.969  1.00  0.00     0.141 A 
ATOM     23  F   UNL     1     102.380 110.198  81.014  1.00  0.00    -0.205 F 
ENDBRANCH  15  17
ENDBRANCH  12  15
ENDBRANCH  10  12
BRANCH   4  24
ATOM     24  C   UNL     1     112.102 113.369  79.505  1.00  0.00     0.121 C 
ATOM     25  C   UNL     1     112.317 113.078  80.996  1.00  0.00     0.037 C 
BRANCH  24  26
ATOM     26  C   UNL     1     112.954 114.486  78.993  1.00  0.00    -0.020 A 
ATOM     27  C   UNL     1     114.351 114.447  79.093  1.00  0.00    -0.026 A 
ATOM     28  C   UNL     1     112.321 115.578  78.401  1.00  0.00     0.006 A 
ATOM     29  C   UNL     1     115.114 115.504  78.566  1.00  0.00    -0.042 A 
ATOM     30  C   UNL     1     115.029 113.244  79.701  1.00  0.00     0.117 C 
ATOM     31  C   UNL     1     113.076 116.635  77.897  1.00  0.00     0.001 A 
ATOM     32  C   UNL     1     116.616 115.489  78.685  1.00  0.00     0.051 C 
ATOM     33  C   UNL     1     114.467 116.601  77.981  1.00  0.00     0.004 A 
ATOM     34  N   UNL     1     116.421 113.490  80.097  1.00  0.00    -0.312 NA
ATOM     35  C   UNL     1     117.167 114.095  78.995  1.00  0.00     0.086 C 
ATOM     36  H   UNL     1     116.436 114.120  80.899  1.00  0.00     0.123 HD
ENDBRANCH  24  26
ENDBRANCH   4  24
TORSDOF 5
ENDMDL
MODEL 11
REMARK VINA RESULT:      -9.6      3.753      5.703
REMARK SMILES C[C@H](c1cccc2c1CNCC2)n1c(=O)oc2cc(S(=O)(=O)Nc3ccc(F)cn3)c(F)cc21
REMARK SMILES IDX 32 1 16 2 15 3 13 4 34 5 17 6 14 7 33 8 18 9 19 10 31 11
REMARK SMILES IDX 20 12 21 13 22 14 23 15 24 17 30 18 25 19 29 20 26 21 27 22
REMARK SMILES IDX 28 23 2 24 1 25 3 26 8 27 4 28 7 29 9 30 5 31 12 32 6 33
REMARK SMILES IDX 10 34 11 35
REMARK H PARENT 23 16 10 36
ROOT
ATOM      1  F   UNL     1     109.125 114.733  76.315  1.00  0.00    -0.205 F 
ATOM      2  O   UNL     1     111.544 110.952  79.442  1.00  0.00    -0.408 OA
ATOM      3  O   UNL     1     113.488 111.324  80.627  1.00  0.00    -0.223 OA
ATOM      4  N   UNL     1     112.532 113.008  79.319  1.00  0.00    -0.266 N 
ATOM      5  C   UNL     1     111.411 113.062  78.530  1.00  0.00     0.094 A 
ATOM      6  C   UNL     1     110.832 111.812  78.620  1.00  0.00     0.158 A 
ATOM      7  C   UNL     1     112.622 111.748  79.871  1.00  0.00     0.420 A 
ATOM      8  C   UNL     1     110.868 114.073  77.765  1.00  0.00     0.071 A 
ATOM      9  C   UNL     1     109.671 111.502  77.943  1.00  0.00     0.075 A 
ATOM     10  C   UNL     1     109.096 112.506  77.159  1.00  0.00     0.127 A 
ATOM     11  C   UNL     1     109.690 113.781  77.071  1.00  0.00     0.146 A 
ENDROOT
BRANCH  10  12
ATOM     12  S   UNL     1     107.623 112.173  76.280  1.00  0.00     0.266 S 
ATOM     13  O   UNL     1     107.458 110.726  76.225  1.00  0.00    -0.201 OA
ATOM     14  O   UNL     1     106.552 112.983  76.845  1.00  0.00    -0.201 OA
BRANCH  12  15
ATOM     15  N   UNL     1     107.995 112.731  74.693  1.00  0.00    -0.263 N 
ATOM     16  H   UNL     1     107.235 113.169  74.156  1.00  0.00     0.182 HD
BRANCH  15  17
ATOM     17  C   UNL     1     108.960 111.993  73.924  1.00  0.00     0.139 A 
ATOM     18  N   UNL     1     108.462 111.079  73.062  1.00  0.00    -0.235 NA
ATOM     19  C   UNL     1     110.313 112.243  74.093  1.00  0.00     0.051 A 
ATOM     20  C   UNL     1     109.366 110.382  72.337  1.00  0.00     0.152 A 
ATOM     21  C   UNL     1     111.212 111.507  73.329  1.00  0.00     0.045 A 
ATOM     22  C   UNL     1     110.737 110.557  72.432  1.00  0.00     0.141 A 
ATOM     23  F   UNL     1     111.578 109.833  71.684  1.00  0.00    -0.205 F 
ENDBRANCH  15  17
ENDBRANCH  12  15
ENDBRANCH  10  12
BRANCH   4  24
ATOM     24  C   UNL     1     113.467 114.098  79.538  1.00  0.00     0.121 C 
ATOM     25  C   UNL     1     112.934 115.360  78.846  1.00  0.00     0.037 C 
BRANCH  24  26
ATOM     26  C   UNL     1     114.859 113.741  79.124  1.00  0.00    -0.020 A 
ATOM     27  C   UNL     1     115.975 114.193  79.840  1.00  0.00    -0.026 A 
ATOM     28  C   UNL     1     115.023 112.932  78.000  1.00  0.00     0.006 A 
ATOM     29  C   UNL     1     117.263 113.804  79.435  1.00  0.00    -0.042 A 
ATOM     30  C   UNL     1     115.784 115.037  81.077  1.00  0.00     0.117 C 
ATOM     31  C   UNL     1     116.301 112.562  77.587  1.00  0.00     0.001 A 
ATOM     32  C   UNL     1     118.476 114.300  80.179  1.00  0.00     0.051 C 
ATOM     33  C   UNL     1     117.418 112.998  78.298  1.00  0.00     0.004 A 
ATOM     34  N   UNL     1     116.996 115.754  81.492  1.00  0.00    -0.312 NA
ATOM     35  C   UNL     1     118.132 114.836  81.571  1.00  0.00     0.086 C 
ATOM     36  H   UNL     1     117.202 116.487  80.813  1.00  0.00     0.123 HD
ENDBRANCH  24  26
ENDBRANCH   4  24
TORSDOF 5
ENDMDL
MODEL 12
REMARK VINA RESULT:      -9.5      2.328      3.284
REMARK SMILES C[C@H](c1cccc2c1CNCC2)n1c(=O)oc2cc(S(=O)(=O)Nc3ccc(F)cn3)c(F)cc21
REMARK SMILES IDX 32 1 16 2 15 3 13 4 34 5 17 6 14 7 33 8 18 9 19 10 31 11
REMARK SMILES IDX 20 12 21 13 22 14 23 15 24 17 30 18 25 19 29 20 26 21 27 22
REMARK SMILES IDX 28 23 2 24 1 25 3 26 8 27 4 28 7 29 9 30 5 31 12 32 6 33
REMARK SMILES IDX 10 34 11 35
REMARK H PARENT 23 16 10 36
ROOT
ATOM      1  F   UNL     1     107.616 114.224  76.899  1.00  0.00    -0.205 F 
ATOM      2  O   UNL     1     111.242 110.701  78.987  1.00  0.00    -0.408 OA
ATOM      3  O   UNL     1     112.889 111.298  80.487  1.00  0.00    -0.223 OA
ATOM      4  N   UNL     1     111.386 112.880  79.653  1.00  0.00    -0.266 N 
ATOM      5  C   UNL     1     110.336 112.806  78.773  1.00  0.00     0.094 A 
ATOM      6  C   UNL     1     110.268 111.484  78.386  1.00  0.00     0.158 A 
ATOM      7  C   UNL     1     111.936 111.624  79.789  1.00  0.00     0.420 A 
ATOM      8  C   UNL     1     109.462 113.761  78.295  1.00  0.00     0.071 A 
ATOM      9  C   UNL     1     109.317 111.039  77.491  1.00  0.00     0.075 A 
ATOM     10  C   UNL     1     108.416 111.983  76.990  1.00  0.00     0.127 A 
ATOM     11  C   UNL     1     108.488 113.332  77.389  1.00  0.00     0.146 A 
ENDROOT
BRANCH  10  12
ATOM     12  S   UNL     1     107.186 111.479  75.855  1.00  0.00     0.266 S 
ATOM     13  O   UNL     1     107.572 111.969  74.538  1.00  0.00    -0.201 OA
ATOM     14  O   UNL     1     106.948 110.052  76.033  1.00  0.00    -0.201 OA
BRANCH  12  15
ATOM     15  N   UNL     1     105.804 112.366  76.374  1.00  0.00    -0.263 N 
ATOM     16  H   UNL     1     105.854 113.391  76.321  1.00  0.00     0.182 HD
BRANCH  15  17
ATOM     17  C   UNL     1     105.025 111.832  77.458  1.00  0.00     0.139 A 
ATOM     18  N   UNL     1     104.165 110.838  77.141  1.00  0.00    -0.235 NA
ATOM     19  C   UNL     1     105.183 112.341  78.737  1.00  0.00     0.051 A 
ATOM     20  C   UNL     1     103.430 110.333  78.157  1.00  0.00     0.152 A 
ATOM     21  C   UNL     1     104.409 111.796  79.756  1.00  0.00     0.045 A 
ATOM     22  C   UNL     1     103.513 110.773  79.468  1.00  0.00     0.141 A 
ATOM     23  F   UNL     1     102.755 110.229  80.427  1.00  0.00    -0.205 F 
ENDBRANCH  15  17
ENDBRANCH  12  15
ENDBRANCH  10  12
BRANCH   4  24
ATOM     24  C   UNL     1     111.840 114.083  80.330  1.00  0.00     0.121 C 
ATOM     25  C   UNL     1     110.637 114.772  80.987  1.00  0.00     0.037 C 
BRANCH  24  26
ATOM     26  C   UNL     1     112.613 114.985  79.422  1.00  0.00    -0.020 A 
ATOM     27  C   UNL     1     114.005 114.882  79.297  1.00  0.00    -0.026 A 
ATOM     28  C   UNL     1     111.909 115.938  78.687  1.00  0.00     0.006 A 
ATOM     29  C   UNL     1     114.686 115.728  78.405  1.00  0.00    -0.042 A 
ATOM     30  C   UNL     1     114.753 113.821  80.067  1.00  0.00     0.117 C 
ATOM     31  C   UNL     1     112.586 116.791  77.818  1.00  0.00     0.001 A 
ATOM     32  C   UNL     1     116.185 115.646  78.275  1.00  0.00     0.051 C 
ATOM     33  C   UNL     1     113.970 116.690  77.678  1.00  0.00     0.004 A 
ATOM     34  N   UNL     1     116.198 114.067  80.154  1.00  0.00    -0.312 NA
ATOM     35  C   UNL     1     116.752 114.337  78.829  1.00  0.00     0.086 C 
ATOM     36  H   UNL     1     116.366 114.870  80.759  1.00  0.00     0.123 HD
ENDBRANCH  24  26
ENDBRANCH   4  24
TORSDOF 5
ENDMDL
MODEL 13
REMARK VINA RESULT:      -9.5      4.658      9.541
REMARK SMILES C[C@H](c1cccc2c1CNCC2)n1c(=O)oc2cc(S(=O)(=O)Nc3ccc(F)cn3)c(F)cc21
REMARK SMILES IDX 32 1 16 2 15 3 13 4 34 5 17 6 14 7 33 8 18 9 19 10 31 11
REMARK SMILES IDX 20 12 21 13 22 14 23 15 24 17 30 18 25 19 29 20 26 21 27 22
REMARK SMILES IDX 28 23 2 24 1 25 3 26 8 27 4 28 7 29 9 30 5 31 12 32 6 33
REMARK SMILES IDX 10 34 11 35
REMARK H PARENT 23 16 10 36
ROOT
ATOM      1  F   UNL     1     115.341 112.534  79.498  1.00  0.00    -0.205 F 
ATOM      2  O   UNL     1     111.017 115.735  78.511  1.00  0.00    -0.408 OA
ATOM      3  O   UNL     1     108.830 115.023  78.691  1.00  0.00    -0.223 OA
ATOM      4  N   UNL     1     110.610 113.576  79.136  1.00  0.00    -0.266 N 
ATOM      5  C   UNL     1     111.973 113.728  79.108  1.00  0.00     0.094 A 
ATOM      6  C   UNL     1     112.194 115.036  78.729  1.00  0.00     0.158 A 
ATOM      7  C   UNL     1     110.026 114.773  78.780  1.00  0.00     0.420 A 
ATOM      8  C   UNL     1     113.005 112.853  79.375  1.00  0.00     0.071 A 
ATOM      9  C   UNL     1     113.469 115.545  78.594  1.00  0.00     0.075 A 
ATOM     10  C   UNL     1     114.536 114.683  78.859  1.00  0.00     0.127 A 
ATOM     11  C   UNL     1     114.306 113.348  79.247  1.00  0.00     0.146 A 
ENDROOT
BRANCH  10  12
ATOM     12  S   UNL     1     116.175 115.272  78.707  1.00  0.00     0.266 S 
ATOM     13  O   UNL     1     116.955 114.241  78.035  1.00  0.00    -0.201 OA
ATOM     14  O   UNL     1     116.135 116.611  78.133  1.00  0.00    -0.201 OA
BRANCH  12  15
ATOM     15  N   UNL     1     116.700 115.359  80.345  1.00  0.00    -0.263 N 
ATOM     16  H   UNL     1     116.655 116.276  80.808  1.00  0.00     0.182 HD
BRANCH  15  17
ATOM     17  C   UNL     1     117.779 114.502  80.758  1.00  0.00     0.139 A 
ATOM     18  N   UNL     1     118.061 113.465  79.939  1.00  0.00    -0.235 NA
ATOM     19  C   UNL     1     118.459 114.768  81.936  1.00  0.00     0.051 A 
ATOM     20  C   UNL     1     119.075 112.656  80.322  1.00  0.00     0.152 A 
ATOM     21  C   UNL     1     119.495 113.914  82.296  1.00  0.00     0.045 A 
ATOM     22  C   UNL     1     119.815 112.835  81.480  1.00  0.00     0.141 A 
ATOM     23  F   UNL     1     120.806 111.996  81.801  1.00  0.00    -0.205 F 
ENDBRANCH  15  17
ENDBRANCH  12  15
ENDBRANCH  10  12
BRANCH   4  24
ATOM     24  C   UNL     1     109.900 112.358  79.484  1.00  0.00     0.121 C 
ATOM     25  C   UNL     1     110.791 111.503  80.396  1.00  0.00     0.037 C 
BRANCH  24  26
ATOM     26  C   UNL     1     109.413 111.621  78.277  1.00  0.00    -0.020 A 
ATOM     27  C   UNL     1     108.046 111.429  78.039  1.00  0.00    -0.026 A 
ATOM     28  C   UNL     1     110.360 111.133  77.379  1.00  0.00     0.006 A 
ATOM     29  C   UNL     1     107.633 110.761  76.873  1.00  0.00    -0.042 A 
ATOM     30  C   UNL     1     107.027 111.995  78.998  1.00  0.00     0.117 C 
ATOM     31  C   UNL     1     109.951 110.453  76.234  1.00  0.00     0.001 A 
ATOM     32  C   UNL     1     106.167 110.524  76.613  1.00  0.00     0.051 C 
ATOM     33  C   UNL     1     108.593 110.264  75.981  1.00  0.00     0.004 A 
ATOM     34  N   UNL     1     105.692 111.403  78.856  1.00  0.00    -0.312 NA
ATOM     35  C   UNL     1     105.267 111.430  77.457  1.00  0.00     0.086 C 
ATOM     36  H   UNL     1     105.716 110.437  79.181  1.00  0.00     0.123 HD
ENDBRANCH  24  26
ENDBRANCH   4  24
TORSDOF 5
ENDMDL
MODEL 14
REMARK VINA RESULT:      -9.4      3.404      5.088
REMARK SMILES C[C@H](c1cccc2c1CNCC2)n1c(=O)oc2cc(S(=O)(=O)Nc3ccc(F)cn3)c(F)cc21
REMARK SMILES IDX 32 1 16 2 15 3 13 4 34 5 17 6 14 7 33 8 18 9 19 10 31 11
REMARK SMILES IDX 20 12 21 13 22 14 23 15 24 17 30 18 25 19 29 20 26 21 27 22
REMARK SMILES IDX 28 23 2 24 1 25 3 26 8 27 4 28 7 29 9 30 5 31 12 32 6 33
REMARK SMILES IDX 10 34 11 35
REMARK H PARENT 23 16 10 36
ROOT
ATOM      1  F   UNL     1     108.450 110.413  76.347  1.00  0.00    -0.205 F 
ATOM      2  O   UNL     1     110.080 115.632  76.506  1.00  0.00    -0.408 OA
ATOM      3  O   UNL     1     110.962 116.641  78.384  1.00  0.00    -0.223 OA
ATOM      4  N   UNL     1     110.295 114.402  78.418  1.00  0.00    -0.266 N 
ATOM      5  C   UNL     1     109.752 113.569  77.473  1.00  0.00     0.094 A 
ATOM      6  C   UNL     1     109.632 114.332  76.330  1.00  0.00     0.158 A 
ATOM      7  C   UNL     1     110.496 115.641  77.849  1.00  0.00     0.420 A 
ATOM      8  C   UNL     1     109.365 112.246  77.521  1.00  0.00     0.071 A 
ATOM      9  C   UNL     1     109.114 113.811  75.162  1.00  0.00     0.075 A 
ATOM     10  C   UNL     1     108.713 112.472  75.179  1.00  0.00     0.127 A 
ATOM     11  C   UNL     1     108.838 111.697  76.348  1.00  0.00     0.146 A 
ENDROOT
BRANCH  10  12
ATOM     12  S   UNL     1     108.050 111.756  73.729  1.00  0.00     0.266 S 
ATOM     13  O   UNL     1     107.694 110.377  74.040  1.00  0.00    -0.201 OA
ATOM     14  O   UNL     1     107.024 112.645  73.200  1.00  0.00    -0.201 OA
BRANCH  12  15
ATOM     15  N   UNL     1     109.403 111.734  72.664  1.00  0.00    -0.263 N 
ATOM     16  H   UNL     1     109.210 111.705  71.655  1.00  0.00     0.182 HD
BRANCH  15  17
ATOM     17  C   UNL     1     110.592 111.049  73.093  1.00  0.00     0.139 A 
ATOM     18  N   UNL     1     111.000 110.021  72.316  1.00  0.00    -0.235 NA
ATOM     19  C   UNL     1     111.247 111.458  74.244  1.00  0.00     0.051 A 
ATOM     20  C   UNL     1     112.118 109.373  72.715  1.00  0.00     0.152 A 
ATOM     21  C   UNL     1     112.393 110.767  74.622  1.00  0.00     0.045 A 
ATOM     22  C   UNL     1     112.843 109.703  73.849  1.00  0.00     0.141 A 
ATOM     23  F   UNL     1     113.942 109.019  74.188  1.00  0.00    -0.205 F 
ENDBRANCH  15  17
ENDBRANCH  12  15
ENDBRANCH  10  12
BRANCH   4  24
ATOM     24  C   UNL     1     110.608 114.037  79.789  1.00  0.00     0.121 C 
ATOM     25  C   UNL     1     110.388 115.257  80.693  1.00  0.00     0.037 C 
BRANCH  24  26
ATOM     26  C   UNL     1     111.974 113.444  79.920  1.00  0.00    -0.020 A 
ATOM     27  C   UNL     1     112.165 112.145  80.408  1.00  0.00    -0.026 A 
ATOM     28  C   UNL     1     113.067 114.219  79.532  1.00  0.00     0.006 A 
ATOM     29  C   UNL     1     113.465 111.616  80.481  1.00  0.00    -0.042 A 
ATOM     30  C   UNL     1     110.973 111.301  80.789  1.00  0.00     0.117 C 
ATOM     31  C   UNL     1     114.357 113.701  79.623  1.00  0.00     0.001 A 
ATOM     32  C   UNL     1     113.691 110.229  81.026  1.00  0.00     0.051 C 
ATOM     33  C   UNL     1     114.558 112.406  80.098  1.00  0.00     0.004 A 
ATOM     34  N   UNL     1     111.313 110.149  81.633  1.00  0.00    -0.312 NA
ATOM     35  C   UNL     1     112.412 109.388  81.040  1.00  0.00     0.086 C 
ATOM     36  H   UNL     1     111.593 110.479  82.556  1.00  0.00     0.123 HD
ENDBRANCH  24  26
ENDBRANCH   4  24
TORSDOF 5
ENDMDL
MODEL 15
REMARK VINA RESULT:      -9.4      2.566      3.690
REMARK SMILES C[C@H](c1cccc2c1CNCC2)n1c(=O)oc2cc(S(=O)(=O)Nc3ccc(F)cn3)c(F)cc21
REMARK SMILES IDX 32 1 16 2 15 3 13 4 34 5 17 6 14 7 33 8 18 9 19 10 31 11
REMARK SMILES IDX 20 12 21 13 22 14 23 15 24 17 30 18 25 19 29 20 26 21 27 22
REMARK SMILES IDX 28 23 2 24 1 25 3 26 8 27 4 28 7 29 9 30 5 31 12 32 6 33
REMARK SMILES IDX 10 34 11 35
REMARK H PARENT 23 16 10 36
ROOT
ATOM      1  F   UNL     1     111.072 110.716  75.119  1.00  0.00    -0.205 F 
ATOM      2  O   UNL     1     109.426 115.335  77.544  1.00  0.00    -0.408 OA
ATOM      3  O   UNL     1     110.526 116.307  79.324  1.00  0.00    -0.223 OA
ATOM      4  N   UNL     1     111.311 114.332  78.356  1.00  0.00    -0.266 N 
ATOM      5  C   UNL     1     110.867 113.554  77.316  1.00  0.00     0.094 A 
ATOM      6  C   UNL     1     109.731 114.178  76.843  1.00  0.00     0.158 A 
ATOM      7  C   UNL     1     110.455 115.402  78.501  1.00  0.00     0.420 A 
ATOM      8  C   UNL     1     111.351 112.386  76.764  1.00  0.00     0.071 A 
ATOM      9  C   UNL     1     109.010 113.666  75.785  1.00  0.00     0.075 A 
ATOM     10  C   UNL     1     109.477 112.483  75.203  1.00  0.00     0.127 A 
ATOM     11  C   UNL     1     110.637 111.850  75.689  1.00  0.00     0.146 A 
ENDROOT
BRANCH  10  12
ATOM     12  S   UNL     1     108.606 111.786  73.857  1.00  0.00     0.266 S 
ATOM     13  O   UNL     1     107.793 112.838  73.263  1.00  0.00    -0.201 OA
ATOM     14  O   UNL     1     109.554 111.068  73.014  1.00  0.00    -0.201 OA
BRANCH  12  15
ATOM     15  N   UNL     1     107.552 110.663  74.629  1.00  0.00    -0.263 N 
ATOM     16  H   UNL     1     106.983 110.057  74.024  1.00  0.00     0.182 HD
BRANCH  15  17
ATOM     17  C   UNL     1     106.947 111.048  75.875  1.00  0.00     0.139 A 
ATOM     18  N   UNL     1     105.839 111.817  75.786  1.00  0.00    -0.235 NA
ATOM     19  C   UNL     1     107.506 110.629  77.072  1.00  0.00     0.051 A 
ATOM     20  C   UNL     1     105.266 112.182  76.956  1.00  0.00     0.152 A 
ATOM     21  C   UNL     1     106.888 111.025  78.253  1.00  0.00     0.045 A 
ATOM     22  C   UNL     1     105.747 111.816  78.203  1.00  0.00     0.141 A 
ATOM     23  F   UNL     1     105.131 112.213  79.322  1.00  0.00    -0.205 F 
ENDBRANCH  15  17
ENDBRANCH  12  15
ENDBRANCH  10  12
BRANCH   4  24
ATOM     24  C   UNL     1     112.488 114.070  79.166  1.00  0.00     0.121 C 
ATOM     25  C   UNL     1     112.111 114.191  80.649  1.00  0.00     0.037 C 
BRANCH  24  26
ATOM     26  C   UNL     1     113.645 114.935  78.780  1.00  0.00    -0.020 A 
ATOM     27  C   UNL     1     114.964 114.570  79.078  1.00  0.00    -0.026 A 
ATOM     28  C   UNL     1     113.379 116.123  78.100  1.00  0.00     0.006 A 
ATOM     29  C   UNL     1     116.023 115.396  78.663  1.00  0.00    -0.042 A 
ATOM     30  C   UNL     1     115.243 113.263  79.779  1.00  0.00     0.117 C 
ATOM     31  C   UNL     1     114.427 116.953  77.708  1.00  0.00     0.001 A 
ATOM     32  C   UNL     1     117.447 115.030  78.996  1.00  0.00     0.051 C 
ATOM     33  C   UNL     1     115.745 116.594  77.990  1.00  0.00     0.004 A 
ATOM     34  N   UNL     1     116.585 113.187  80.369  1.00  0.00    -0.312 NA
ATOM     35  C   UNL     1     117.600 113.558  79.384  1.00  0.00     0.086 C 
ATOM     36  H   UNL     1     116.640 113.824  81.164  1.00  0.00     0.123 HD
ENDBRANCH  24  26
ENDBRANCH   4  24
TORSDOF 5
ENDMDL
