MODEL 1
REMARK VINA RESULT:     -11.2      0.000      0.000
REMARK SMILES Cc1cccc(N2CCN(C(=O)c3cccc(S(=O)(=O)N4CCc5ccccc54)c3)CC2)c1C
REMARK SMILES IDX 12 1 7 2 10 3 8 4 32 5 9 6 31 7 11 8 13 9 17 10 30 11 16 12
REMARK SMILES IDX 15 13 14 14 18 15 19 16 20 17 21 18 22 19 29 20 23 21 24 22
REMARK SMILES IDX 28 23 25 24 27 25 26 26 6 27 33 28 5 29 2 30 4 31 3 32 34 33
REMARK SMILES IDX 1 34
REMARK H PARENT
ROOT
ATOM      1  O   UNL     1     110.575 115.857  80.132  1.00  0.00    -0.269 OA
ATOM      2  N   UNL     1     108.737 112.960  76.670  1.00  0.00    -0.368 N 
ATOM      3  N   UNL     1     110.128 115.002  78.029  1.00  0.00    -0.335 N 
ATOM      4  C   UNL     1     108.310 113.350  78.023  1.00  0.00     0.138 C 
ATOM      5  C   UNL     1     110.145 113.220  76.334  1.00  0.00     0.138 C 
ATOM      6  C   UNL     1     108.711 114.796  78.314  1.00  0.00     0.141 C 
ATOM      7  C   UNL     1     110.504 114.670  76.652  1.00  0.00     0.141 C 
ATOM      8  C   UNL     1     110.977 115.541  79.011  1.00  0.00     0.254 C 
ENDROOT
BRANCH   8   9
ATOM      9  C   UNL     1     112.381 115.717  78.658  1.00  0.00     0.041 A 
ATOM     10  C   UNL     1     114.646 114.933  78.674  1.00  0.00     0.088 A 
ATOM     11  C   UNL     1     113.318 114.749  79.018  1.00  0.00     0.036 A 
ATOM     12  C   UNL     1     115.066 116.056  77.983  1.00  0.00     0.022 A 
ATOM     13  C   UNL     1     114.129 117.025  77.624  1.00  0.00     0.002 A 
ATOM     14  C   UNL     1     112.787 116.855  77.961  1.00  0.00     0.014 A 
BRANCH  10  15
ATOM     15  S   UNL     1     115.835 113.706  79.130  1.00  0.00     0.264 S 
ATOM     16  O   UNL     1     115.145 112.707  79.928  1.00  0.00    -0.201 OA
ATOM     17  O   UNL     1     116.548 113.319  77.927  1.00  0.00    -0.201 OA
BRANCH  15  18
ATOM     18  N   UNL     1     116.859 114.621  80.127  1.00  0.00    -0.266 N 
ATOM     19  C   UNL     1     116.223 115.460  81.200  1.00  0.00     0.140 C 
ATOM     20  C   UNL     1     117.973 113.955  80.736  1.00  0.00     0.055 A 
ATOM     21  C   UNL     1     117.300 115.634  82.286  1.00  0.00     0.060 C 
ATOM     22  C   UNL     1     118.248 114.520  81.979  1.00  0.00    -0.022 A 
ATOM     23  C   UNL     1     118.785 112.972  80.193  1.00  0.00     0.027 A 
ATOM     24  C   UNL     1     119.322 114.083  82.738  1.00  0.00     0.006 A 
ATOM     25  C   UNL     1     119.864 112.518  80.955  1.00  0.00     0.002 A 
ATOM     26  C   UNL     1     120.128 113.067  82.221  1.00  0.00     0.000 A 
ENDBRANCH  15  18
ENDBRANCH  10  15
ENDBRANCH   8   9
BRANCH   2  27
ATOM     27  C   UNL     1     108.070 111.888  76.063  1.00  0.00     0.040 A 
ATOM     28  C   UNL     1     108.031 111.720  74.658  1.00  0.00    -0.025 A 
ATOM     29  C   UNL     1     107.398 110.920  76.848  1.00  0.00     0.026 A 
ATOM     30  C   UNL     1     107.358 110.647  74.072  1.00  0.00    -0.046 A 
ATOM     31  C   UNL     1     106.727 109.847  76.262  1.00  0.00     0.002 A 
ATOM     32  C   UNL     1     106.706 109.711  74.874  1.00  0.00     0.004 A 
ATOM     33  C   UNL     1     108.731 112.721  73.793  1.00  0.00     0.047 C 
ATOM     34  C   UNL     1     107.324 110.476  72.589  1.00  0.00     0.044 C 
ENDBRANCH   2  27
TORSDOF 4
ENDMDL
MODEL 2
REMARK VINA RESULT:     -10.7      1.874      3.000
REMARK SMILES Cc1cccc(N2CCN(C(=O)c3cccc(S(=O)(=O)N4CCc5ccccc54)c3)CC2)c1C
REMARK SMILES IDX 12 1 7 2 10 3 8 4 32 5 9 6 31 7 11 8 13 9 17 10 30 11 16 12
REMARK SMILES IDX 15 13 14 14 18 15 19 16 20 17 21 18 22 19 29 20 23 21 24 22
REMARK SMILES IDX 28 23 25 24 27 25 26 26 6 27 33 28 5 29 2 30 4 31 3 32 34 33
REMARK SMILES IDX 1 34
REMARK H PARENT
ROOT
ATOM      1  O   UNL     1     109.507 113.837  79.458  1.00  0.00    -0.269 OA
ATOM      2  N   UNL     1     108.917 111.968  74.995  1.00  0.00    -0.368 N 
ATOM      3  N   UNL     1     110.001 113.198  77.290  1.00  0.00    -0.335 N 
ATOM      4  C   UNL     1     108.014 112.567  75.992  1.00  0.00     0.138 C 
ATOM      5  C   UNL     1     110.233 111.538  75.489  1.00  0.00     0.138 C 
ATOM      6  C   UNL     1     108.728 113.678  76.761  1.00  0.00     0.141 C 
ATOM      7  C   UNL     1     110.904 112.673  76.262  1.00  0.00     0.141 C 
ATOM      8  C   UNL     1     110.293 113.326  78.658  1.00  0.00     0.254 C 
ENDROOT
BRANCH   8   9
ATOM      9  C   UNL     1     111.583 112.822  79.117  1.00  0.00     0.041 A 
ATOM     10  C   UNL     1     113.978 112.836  79.018  1.00  0.00     0.088 A 
ATOM     11  C   UNL     1     112.763 113.325  78.570  1.00  0.00     0.036 A 
ATOM     12  C   UNL     1     114.049 111.858  79.996  1.00  0.00     0.022 A 
ATOM     13  C   UNL     1     112.868 111.355  80.542  1.00  0.00     0.002 A 
ATOM     14  C   UNL     1     111.636 111.837  80.103  1.00  0.00     0.014 A 
BRANCH  10  15
ATOM     15  S   UNL     1     115.475 113.472  78.326  1.00  0.00     0.264 S 
ATOM     16  O   UNL     1     115.807 112.647  77.177  1.00  0.00    -0.201 OA
ATOM     17  O   UNL     1     115.314 114.907  78.176  1.00  0.00    -0.201 OA
BRANCH  15  18
ATOM     18  N   UNL     1     116.563 113.151  79.589  1.00  0.00    -0.266 N 
ATOM     19  C   UNL     1     117.927 112.638  79.223  1.00  0.00     0.140 C 
ATOM     20  C   UNL     1     116.761 114.171  80.577  1.00  0.00     0.055 A 
ATOM     21  C   UNL     1     118.851 113.041  80.387  1.00  0.00     0.060 C 
ATOM     22  C   UNL     1     118.070 114.128  81.053  1.00  0.00    -0.022 A 
ATOM     23  C   UNL     1     115.822 115.031  81.122  1.00  0.00     0.027 A 
ATOM     24  C   UNL     1     118.489 114.981  82.062  1.00  0.00     0.006 A 
ATOM     25  C   UNL     1     116.238 115.902  82.132  1.00  0.00     0.002 A 
ATOM     26  C   UNL     1     117.564 115.880  82.595  1.00  0.00     0.000 A 
ENDBRANCH  15  18
ENDBRANCH  10  15
ENDBRANCH   8   9
BRANCH   2  27
ATOM     27  C   UNL     1     108.335 111.299  73.911  1.00  0.00     0.040 A 
ATOM     28  C   UNL     1     108.599 111.661  72.568  1.00  0.00    -0.025 A 
ATOM     29  C   UNL     1     107.445 110.219  74.125  1.00  0.00     0.026 A 
ATOM     30  C   UNL     1     108.007 110.984  71.502  1.00  0.00    -0.046 A 
ATOM     31  C   UNL     1     106.854 109.541  73.060  1.00  0.00     0.002 A 
ATOM     32  C   UNL     1     107.134 109.924  71.748  1.00  0.00     0.004 A 
ATOM     33  C   UNL     1     109.536 112.797  72.300  1.00  0.00     0.047 C 
ATOM     34  C   UNL     1     108.292 111.372  70.088  1.00  0.00     0.044 C 
ENDBRANCH   2  27
TORSDOF 4
ENDMDL
MODEL 3
REMARK VINA RESULT:     -10.5      1.495      2.028
REMARK SMILES Cc1cccc(N2CCN(C(=O)c3cccc(S(=O)(=O)N4CCc5ccccc54)c3)CC2)c1C
REMARK SMILES IDX 12 1 7 2 10 3 8 4 32 5 9 6 31 7 11 8 13 9 17 10 30 11 16 12
REMARK SMILES IDX 15 13 14 14 18 15 19 16 20 17 21 18 22 19 29 20 23 21 24 22
REMARK SMILES IDX 28 23 25 24 27 25 26 26 6 27 33 28 5 29 2 30 4 31 3 32 34 33
REMARK SMILES IDX 1 34
REMARK H PARENT
ROOT
ATOM      1  O   UNL     1     110.972 114.198  80.687  1.00  0.00    -0.269 OA
ATOM      2  N   UNL     1     109.089 111.961  76.787  1.00  0.00    -0.368 N 
ATOM      3  N   UNL     1     110.785 113.394  78.525  1.00  0.00    -0.335 N 
ATOM      4  C   UNL     1     108.521 112.620  77.974  1.00  0.00     0.138 C 
ATOM      5  C   UNL     1     110.512 111.599  76.867  1.00  0.00     0.138 C 
ATOM      6  C   UNL     1     109.390 113.804  78.396  1.00  0.00     0.141 C 
ATOM      7  C   UNL     1     111.340 112.805  77.303  1.00  0.00     0.141 C 
ATOM      8  C   UNL     1     111.488 113.639  79.717  1.00  0.00     0.254 C 
ENDROOT
BRANCH   8   9
ATOM      9  C   UNL     1     112.878 113.201  79.777  1.00  0.00     0.041 A 
ATOM     10  C   UNL     1     115.196 113.556  79.283  1.00  0.00     0.088 A 
ATOM     11  C   UNL     1     113.883 113.988  79.216  1.00  0.00     0.036 A 
ATOM     12  C   UNL     1     115.535 112.360  79.891  1.00  0.00     0.022 A 
ATOM     13  C   UNL     1     114.529 111.572  80.451  1.00  0.00     0.002 A 
ATOM     14  C   UNL     1     113.202 111.992  80.394  1.00  0.00     0.014 A 
BRANCH  10  15
ATOM     15  S   UNL     1     116.472 114.554  78.573  1.00  0.00     0.264 S 
ATOM     16  O   UNL     1     117.368 113.666  77.854  1.00  0.00    -0.201 OA
ATOM     17  O   UNL     1     115.831 115.662  77.887  1.00  0.00    -0.201 OA
BRANCH  15  18
ATOM     18  N   UNL     1     117.239 115.122  79.976  1.00  0.00    -0.266 N 
ATOM     19  C   UNL     1     116.373 115.700  81.061  1.00  0.00     0.140 C 
ATOM     20  C   UNL     1     118.181 114.255  80.623  1.00  0.00     0.055 A 
ATOM     21  C   UNL     1     117.170 115.527  82.367  1.00  0.00     0.060 C 
ATOM     22  C   UNL     1     118.161 114.470  81.999  1.00  0.00    -0.022 A 
ATOM     23  C   UNL     1     119.094 113.394  80.039  1.00  0.00     0.027 A 
ATOM     24  C   UNL     1     119.030 113.790  82.838  1.00  0.00     0.006 A 
ATOM     25  C   UNL     1     119.966 112.696  80.877  1.00  0.00     0.002 A 
ATOM     26  C   UNL     1     119.931 112.889  82.268  1.00  0.00     0.000 A 
ENDBRANCH  15  18
ENDBRANCH  10  15
ENDBRANCH   8   9
BRANCH   2  27
ATOM     27  C   UNL     1     108.226 111.194  75.995  1.00  0.00     0.040 A 
ATOM     28  C   UNL     1     108.276 111.217  74.581  1.00  0.00    -0.025 A 
ATOM     29  C   UNL     1     107.254 110.355  76.593  1.00  0.00     0.026 A 
ATOM     30  C   UNL     1     107.404 110.448  73.809  1.00  0.00    -0.046 A 
ATOM     31  C   UNL     1     106.384 109.585  75.821  1.00  0.00     0.002 A 
ATOM     32  C   UNL     1     106.458 109.632  74.429  1.00  0.00     0.004 A 
ATOM     33  C   UNL     1     109.290 112.090  73.910  1.00  0.00     0.047 C 
ATOM     34  C   UNL     1     107.466 110.478  72.317  1.00  0.00     0.044 C 
ENDBRANCH   2  27
TORSDOF 4
ENDMDL
MODEL 4
REMARK VINA RESULT:     -10.4      3.288      9.872
REMARK SMILES Cc1cccc(N2CCN(C(=O)c3cccc(S(=O)(=O)N4CCc5ccccc54)c3)CC2)c1C
REMARK SMILES IDX 12 1 7 2 10 3 8 4 32 5 9 6 31 7 11 8 13 9 17 10 30 11 16 12
REMARK SMILES IDX 15 13 14 14 18 15 19 16 20 17 21 18 22 19 29 20 23 21 24 22
REMARK SMILES IDX 28 23 25 24 27 25 26 26 6 27 33 28 5 29 2 30 4 31 3 32 34 33
REMARK SMILES IDX 1 34
REMARK H PARENT
ROOT
ATOM      1  O   UNL     1     109.294 115.879  77.827  1.00  0.00    -0.269 OA
ATOM      2  N   UNL     1     113.613 113.878  78.881  1.00  0.00    -0.368 N 
ATOM      3  N   UNL     1     110.859 114.484  78.807  1.00  0.00    -0.335 N 
ATOM      4  C   UNL     1     113.174 115.205  78.418  1.00  0.00     0.138 C 
ATOM      5  C   UNL     1     112.638 112.787  78.735  1.00  0.00     0.138 C 
ATOM      6  C   UNL     1     111.818 115.563  79.025  1.00  0.00     0.141 C 
ATOM      7  C   UNL     1     111.297 113.192  79.342  1.00  0.00     0.141 C 
ATOM      8  C   UNL     1     109.621 114.749  78.198  1.00  0.00     0.254 C 
ENDROOT
BRANCH   8   9
ATOM      9  C   UNL     1     108.713 113.624  78.009  1.00  0.00     0.041 A 
ATOM     10  C   UNL     1     107.572 112.089  76.565  1.00  0.00     0.088 A 
ATOM     11  C   UNL     1     108.436 113.158  76.724  1.00  0.00     0.036 A 
ATOM     12  C   UNL     1     106.974 111.472  77.651  1.00  0.00     0.022 A 
ATOM     13  C   UNL     1     107.250 111.940  78.935  1.00  0.00     0.002 A 
ATOM     14  C   UNL     1     108.119 113.015  79.115  1.00  0.00     0.014 A 
BRANCH  10  15
ATOM     15  S   UNL     1     107.221 111.496  74.936  1.00  0.00     0.264 S 
ATOM     16  O   UNL     1     107.177 110.046  75.002  1.00  0.00    -0.201 OA
ATOM     17  O   UNL     1     106.081 112.242  74.435  1.00  0.00    -0.201 OA
BRANCH  15  18
ATOM     18  N   UNL     1     108.625 111.986  74.118  1.00  0.00    -0.266 N 
ATOM     19  C   UNL     1     109.846 111.118  74.244  1.00  0.00     0.140 C 
ATOM     20  C   UNL     1     108.507 112.326  72.730  1.00  0.00     0.055 A 
ATOM     21  C   UNL     1     110.686 111.393  72.984  1.00  0.00     0.060 C 
ATOM     22  C   UNL     1     109.681 111.997  72.055  1.00  0.00    -0.022 A 
ATOM     23  C   UNL     1     107.472 112.993  72.096  1.00  0.00     0.027 A 
ATOM     24  C   UNL     1     109.833 112.285  70.709  1.00  0.00     0.006 A 
ATOM     25  C   UNL     1     107.612 113.278  70.736  1.00  0.00     0.002 A 
ATOM     26  C   UNL     1     108.782 112.923  70.046  1.00  0.00     0.000 A 
ENDBRANCH  15  18
ENDBRANCH  10  15
ENDBRANCH   8   9
BRANCH   2  27
ATOM     27  C   UNL     1     114.982 113.591  78.827  1.00  0.00     0.040 A 
ATOM     28  C   UNL     1     115.896 114.077  79.792  1.00  0.00    -0.025 A 
ATOM     29  C   UNL     1     115.510 112.792  77.784  1.00  0.00     0.026 A 
ATOM     30  C   UNL     1     117.258 113.783  79.719  1.00  0.00    -0.046 A 
ATOM     31  C   UNL     1     116.871 112.498  77.711  1.00  0.00     0.002 A 
ATOM     32  C   UNL     1     117.745 112.993  78.678  1.00  0.00     0.004 A 
ATOM     33  C   UNL     1     115.377 114.924  80.913  1.00  0.00     0.047 C 
ATOM     34  C   UNL     1     118.214 114.299  80.744  1.00  0.00     0.044 C 
ENDBRANCH   2  27
TORSDOF 4
ENDMDL
MODEL 5
REMARK VINA RESULT:     -10.4      1.131      1.650
REMARK SMILES Cc1cccc(N2CCN(C(=O)c3cccc(S(=O)(=O)N4CCc5ccccc54)c3)CC2)c1C
REMARK SMILES IDX 12 1 7 2 10 3 8 4 32 5 9 6 31 7 11 8 13 9 17 10 30 11 16 12
REMARK SMILES IDX 15 13 14 14 18 15 19 16 20 17 21 18 22 19 29 20 23 21 24 22
REMARK SMILES IDX 28 23 25 24 27 25 26 26 6 27 33 28 5 29 2 30 4 31 3 32 34 33
REMARK SMILES IDX 1 34
REMARK H PARENT
ROOT
ATOM      1  O   UNL     1     109.637 113.814  79.667  1.00  0.00    -0.269 OA
ATOM      2  N   UNL     1     108.528 112.627  75.072  1.00  0.00    -0.368 N 
ATOM      3  N   UNL     1     109.451 113.981  77.367  1.00  0.00    -0.335 N 
ATOM      4  C   UNL     1     107.977 112.276  76.391  1.00  0.00     0.138 C 
ATOM      5  C   UNL     1     109.875 113.216  75.068  1.00  0.00     0.138 C 
ATOM      6  C   UNL     1     108.086 113.462  77.349  1.00  0.00     0.141 C 
ATOM      7  C   UNL     1     109.942 114.387  76.047  1.00  0.00     0.141 C 
ATOM      8  C   UNL     1     110.140 114.119  78.584  1.00  0.00     0.254 C 
ENDROOT
BRANCH   8   9
ATOM      9  C   UNL     1     111.500 114.642  78.527  1.00  0.00     0.041 A 
ATOM     10  C   UNL     1     113.864 114.327  78.769  1.00  0.00     0.088 A 
ATOM     11  C   UNL     1     112.580 113.813  78.828  1.00  0.00     0.036 A 
ATOM     12  C   UNL     1     114.101 115.645  78.419  1.00  0.00     0.022 A 
ATOM     13  C   UNL     1     113.020 116.475  78.119  1.00  0.00     0.002 A 
ATOM     14  C   UNL     1     111.721 115.973  78.173  1.00  0.00     0.014 A 
BRANCH  10  15
ATOM     15  S   UNL     1     115.234 113.277  79.150  1.00  0.00     0.264 S 
ATOM     16  O   UNL     1     114.762 112.268  80.083  1.00  0.00    -0.201 OA
ATOM     17  O   UNL     1     115.849 112.885  77.895  1.00  0.00    -0.201 OA
BRANCH  15  18
ATOM     18  N   UNL     1     116.247 114.371  79.961  1.00  0.00    -0.266 N 
ATOM     19  C   UNL     1     115.632 115.239  81.023  1.00  0.00     0.140 C 
ATOM     20  C   UNL     1     117.476 113.870  80.505  1.00  0.00     0.055 A 
ATOM     21  C   UNL     1     116.782 115.611  81.976  1.00  0.00     0.060 C 
ATOM     22  C   UNL     1     117.806 114.568  81.664  1.00  0.00    -0.022 A 
ATOM     23  C   UNL     1     118.331 112.924  79.963  1.00  0.00     0.027 A 
ATOM     24  C   UNL     1     118.986 114.305  82.342  1.00  0.00     0.006 A 
ATOM     25  C   UNL     1     119.516 112.644  80.645  1.00  0.00     0.002 A 
ATOM     26  C   UNL     1     119.839 113.327  81.830  1.00  0.00     0.000 A 
ENDBRANCH  15  18
ENDBRANCH  10  15
ENDBRANCH   8   9
BRANCH   2  27
ATOM     27  C   UNL     1     108.101 111.877  73.969  1.00  0.00     0.040 A 
ATOM     28  C   UNL     1     108.174 112.369  72.644  1.00  0.00    -0.025 A 
ATOM     29  C   UNL     1     107.570 110.576  74.145  1.00  0.00     0.026 A 
ATOM     30  C   UNL     1     107.741 111.607  71.559  1.00  0.00    -0.046 A 
ATOM     31  C   UNL     1     107.137 109.814  73.061  1.00  0.00     0.002 A 
ATOM     32  C   UNL     1     107.222 110.329  71.767  1.00  0.00     0.004 A 
ATOM     33  C   UNL     1     108.732 113.740  72.416  1.00  0.00     0.047 C 
ATOM     34  C   UNL     1     107.824 112.135  70.164  1.00  0.00     0.044 C 
ENDBRANCH   2  27
TORSDOF 4
ENDMDL
MODEL 6
REMARK VINA RESULT:     -10.2      3.329      9.013
REMARK SMILES Cc1cccc(N2CCN(C(=O)c3cccc(S(=O)(=O)N4CCc5ccccc54)c3)CC2)c1C
REMARK SMILES IDX 12 1 7 2 10 3 8 4 32 5 9 6 31 7 11 8 13 9 17 10 30 11 16 12
REMARK SMILES IDX 15 13 14 14 18 15 19 16 20 17 21 18 22 19 29 20 23 21 24 22
REMARK SMILES IDX 28 23 25 24 27 25 26 26 6 27 33 28 5 29 2 30 4 31 3 32 34 33
REMARK SMILES IDX 1 34
REMARK H PARENT
ROOT
ATOM      1  O   UNL     1     108.322 114.465  79.653  1.00  0.00    -0.269 OA
ATOM      2  N   UNL     1     113.160 114.038  79.233  1.00  0.00    -0.368 N 
ATOM      3  N   UNL     1     110.402 113.478  79.419  1.00  0.00    -0.335 N 
ATOM      4  C   UNL     1     112.260 115.024  79.852  1.00  0.00     0.138 C 
ATOM      5  C   UNL     1     112.544 113.118  78.265  1.00  0.00     0.138 C 
ATOM      6  C   UNL     1     111.022 114.334  80.425  1.00  0.00     0.141 C 
ATOM      7  C   UNL     1     111.306 112.462  78.874  1.00  0.00     0.141 C 
ATOM      8  C   UNL     1     109.040 113.625  79.106  1.00  0.00     0.254 C 
ENDROOT
BRANCH   8   9
ATOM      9  C   UNL     1     108.487 112.738  78.089  1.00  0.00     0.041 A 
ATOM     10  C   UNL     1     108.121 112.182  75.786  1.00  0.00     0.088 A 
ATOM     11  C   UNL     1     108.653 113.036  76.737  1.00  0.00     0.036 A 
ATOM     12  C   UNL     1     107.427 111.040  76.146  1.00  0.00     0.022 A 
ATOM     13  C   UNL     1     107.261 110.742  77.498  1.00  0.00     0.002 A 
ATOM     14  C   UNL     1     107.790 111.591  78.469  1.00  0.00     0.014 A 
BRANCH  10  15
ATOM     15  S   UNL     1     108.331 112.559  74.071  1.00  0.00     0.264 S 
ATOM     16  O   UNL     1     107.007 112.635  73.478  1.00  0.00    -0.201 OA
ATOM     17  O   UNL     1     109.242 113.686  73.978  1.00  0.00    -0.201 OA
BRANCH  15  18
ATOM     18  N   UNL     1     109.114 111.151  73.537  1.00  0.00    -0.266 N 
ATOM     19  C   UNL     1     109.129 110.878  72.059  1.00  0.00     0.140 C 
ATOM     20  C   UNL     1     110.444 110.903  74.012  1.00  0.00     0.055 A 
ATOM     21  C   UNL     1     110.364 109.993  71.811  1.00  0.00     0.060 C 
ATOM     22  C   UNL     1     111.183 110.236  73.037  1.00  0.00    -0.022 A 
ATOM     23  C   UNL     1     110.964 111.145  75.273  1.00  0.00     0.027 A 
ATOM     24  C   UNL     1     112.486 109.832  73.284  1.00  0.00     0.006 A 
ATOM     25  C   UNL     1     112.279 110.751  75.527  1.00  0.00     0.002 A 
ATOM     26  C   UNL     1     113.036 110.103  74.538  1.00  0.00     0.000 A 
ENDBRANCH  15  18
ENDBRANCH  10  15
ENDBRANCH   8   9
BRANCH   2  27
ATOM     27  C   UNL     1     114.507 114.389  79.089  1.00  0.00     0.040 A 
ATOM     28  C   UNL     1     115.559 113.549  79.527  1.00  0.00    -0.025 A 
ATOM     29  C   UNL     1     114.872 115.620  78.491  1.00  0.00     0.026 A 
ATOM     30  C   UNL     1     116.896 113.918  79.378  1.00  0.00    -0.046 A 
ATOM     31  C   UNL     1     116.208 115.989  78.341  1.00  0.00     0.002 A 
ATOM     32  C   UNL     1     117.221 115.138  78.785  1.00  0.00     0.004 A 
ATOM     33  C   UNL     1     115.216 112.238  80.163  1.00  0.00     0.047 C 
ATOM     34  C   UNL     1     117.999 113.024  79.842  1.00  0.00     0.044 C 
ENDBRANCH   2  27
TORSDOF 4
ENDMDL
MODEL 7
REMARK VINA RESULT:     -10.1      1.894      3.014
REMARK SMILES Cc1cccc(N2CCN(C(=O)c3cccc(S(=O)(=O)N4CCc5ccccc54)c3)CC2)c1C
REMARK SMILES IDX 12 1 7 2 10 3 8 4 32 5 9 6 31 7 11 8 13 9 17 10 30 11 16 12
REMARK SMILES IDX 15 13 14 14 18 15 19 16 20 17 21 18 22 19 29 20 23 21 24 22
REMARK SMILES IDX 28 23 25 24 27 25 26 26 6 27 33 28 5 29 2 30 4 31 3 32 34 33
REMARK SMILES IDX 1 34
REMARK H PARENT
ROOT
ATOM      1  O   UNL     1     108.811 114.084  79.365  1.00  0.00    -0.269 OA
ATOM      2  N   UNL     1     108.585 112.020  74.955  1.00  0.00    -0.368 N 
ATOM      3  N   UNL     1     109.474 113.370  77.266  1.00  0.00    -0.335 N 
ATOM      4  C   UNL     1     107.600 112.635  75.859  1.00  0.00     0.138 C 
ATOM      5  C   UNL     1     109.872 111.645  75.559  1.00  0.00     0.138 C 
ATOM      6  C   UNL     1     108.231 113.795  76.629  1.00  0.00     0.141 C 
ATOM      7  C   UNL     1     110.459 112.827  76.328  1.00  0.00     0.141 C 
ATOM      8  C   UNL     1     109.664 113.561  78.645  1.00  0.00     0.254 C 
ENDROOT
BRANCH   8   9
ATOM      9  C   UNL     1     110.929 113.110  79.215  1.00  0.00     0.041 A 
ATOM     10  C   UNL     1     113.235 113.504  79.737  1.00  0.00     0.088 A 
ATOM     11  C   UNL     1     112.043 113.949  79.192  1.00  0.00     0.036 A 
ATOM     12  C   UNL     1     113.347 112.247  80.305  1.00  0.00     0.022 A 
ATOM     13  C   UNL     1     112.233 111.408  80.328  1.00  0.00     0.002 A 
ATOM     14  C   UNL     1     111.024 111.840  79.783  1.00  0.00     0.014 A 
BRANCH  10  15
ATOM     15  S   UNL     1     114.648 114.566  79.708  1.00  0.00     0.264 S 
ATOM     16  O   UNL     1     114.597 115.323  78.470  1.00  0.00    -0.201 OA
ATOM     17  O   UNL     1     114.708 115.252  80.986  1.00  0.00    -0.201 OA
BRANCH  15  18
ATOM     18  N   UNL     1     115.896 113.419  79.622  1.00  0.00    -0.266 N 
ATOM     19  C   UNL     1     116.283 112.908  78.262  1.00  0.00     0.140 C 
ATOM     20  C   UNL     1     117.120 113.706  80.314  1.00  0.00     0.055 A 
ATOM     21  C   UNL     1     117.746 112.445  78.391  1.00  0.00     0.060 C 
ATOM     22  C   UNL     1     118.199 113.155  79.626  1.00  0.00    -0.022 A 
ATOM     23  C   UNL     1     117.285 114.324  81.542  1.00  0.00     0.027 A 
ATOM     24  C   UNL     1     119.486 113.248  80.130  1.00  0.00     0.006 A 
ATOM     25  C   UNL     1     118.580 114.431  82.053  1.00  0.00     0.002 A 
ATOM     26  C   UNL     1     119.674 113.901  81.349  1.00  0.00     0.000 A 
ENDBRANCH  15  18
ENDBRANCH  10  15
ENDBRANCH   8   9
BRANCH   2  27
ATOM     27  C   UNL     1     108.098 111.292  73.863  1.00  0.00     0.040 A 
ATOM     28  C   UNL     1     108.367 111.666  72.524  1.00  0.00    -0.025 A 
ATOM     29  C   UNL     1     107.303 110.138  74.063  1.00  0.00     0.026 A 
ATOM     30  C   UNL     1     107.870 110.929  71.449  1.00  0.00    -0.046 A 
ATOM     31  C   UNL     1     106.806 109.401  72.988  1.00  0.00     0.002 A 
ATOM     32  C   UNL     1     107.089 109.797  71.681  1.00  0.00     0.004 A 
ATOM     33  C   UNL     1     109.206 112.879  72.270  1.00  0.00     0.047 C 
ATOM     34  C   UNL     1     108.161 111.330  70.039  1.00  0.00     0.044 C 
ENDBRANCH   2  27
TORSDOF 4
ENDMDL
MODEL 8
REMARK VINA RESULT:     -10.0      2.888      9.722
REMARK SMILES Cc1cccc(N2CCN(C(=O)c3cccc(S(=O)(=O)N4CCc5ccccc54)c3)CC2)c1C
REMARK SMILES IDX 12 1 7 2 10 3 8 4 32 5 9 6 31 7 11 8 13 9 17 10 30 11 16 12
REMARK SMILES IDX 15 13 14 14 18 15 19 16 20 17 21 18 22 19 29 20 23 21 24 22
REMARK SMILES IDX 28 23 25 24 27 25 26 26 6 27 33 28 5 29 2 30 4 31 3 32 34 33
REMARK SMILES IDX 1 34
REMARK H PARENT
ROOT
ATOM      1  O   UNL     1     110.574 116.041  77.079  1.00  0.00    -0.269 OA
ATOM      2  N   UNL     1     114.584 114.316  79.248  1.00  0.00    -0.368 N 
ATOM      3  N   UNL     1     111.914 115.006  78.656  1.00  0.00    -0.335 N 
ATOM      4  C   UNL     1     114.311 115.410  78.301  1.00  0.00     0.138 C 
ATOM      5  C   UNL     1     113.529 113.300  79.385  1.00  0.00     0.138 C 
ATOM      6  C   UNL     1     112.947 116.036  78.587  1.00  0.00     0.141 C 
ATOM      7  C   UNL     1     112.183 113.971  79.657  1.00  0.00     0.141 C 
ATOM      8  C   UNL     1     110.763 115.104  77.857  1.00  0.00     0.254 C 
ENDROOT
BRANCH   8   9
ATOM      9  C   UNL     1     109.774 114.038  77.975  1.00  0.00     0.041 A 
ATOM     10  C   UNL     1     108.876 111.941  77.240  1.00  0.00     0.088 A 
ATOM     11  C   UNL     1     109.822 112.943  77.113  1.00  0.00     0.036 A 
ATOM     12  C   UNL     1     107.881 112.001  78.201  1.00  0.00     0.022 A 
ATOM     13  C   UNL     1     107.833 113.098  79.062  1.00  0.00     0.002 A 
ATOM     14  C   UNL     1     108.778 114.115  78.949  1.00  0.00     0.014 A 
BRANCH  10  15
ATOM     15  S   UNL     1     108.936 110.551  76.148  1.00  0.00     0.264 S 
ATOM     16  O   UNL     1     109.659 109.493  76.831  1.00  0.00    -0.201 OA
ATOM     17  O   UNL     1     107.589 110.320  75.658  1.00  0.00    -0.201 OA
BRANCH  15  18
ATOM     18  N   UNL     1     109.895 111.180  74.897  1.00  0.00    -0.266 N 
ATOM     19  C   UNL     1     111.128 110.413  74.509  1.00  0.00     0.140 C 
ATOM     20  C   UNL     1     109.244 111.552  73.675  1.00  0.00     0.055 A 
ATOM     21  C   UNL     1     111.414 110.795  73.046  1.00  0.00     0.060 C 
ATOM     22  C   UNL     1     110.097 111.341  72.594  1.00  0.00    -0.022 A 
ATOM     23  C   UNL     1     108.005 112.148  73.511  1.00  0.00     0.027 A 
ATOM     24  C   UNL     1     109.714 111.681  71.307  1.00  0.00     0.006 A 
ATOM     25  C   UNL     1     107.605 112.485  72.216  1.00  0.00     0.002 A 
ATOM     26  C   UNL     1     108.452 112.249  71.121  1.00  0.00     0.000 A 
ENDBRANCH  15  18
ENDBRANCH  10  15
ENDBRANCH   8   9
BRANCH   2  27
ATOM     27  C   UNL     1     115.920 113.953  79.452  1.00  0.00     0.040 A 
ATOM     28  C   UNL     1     116.677 114.437  80.547  1.00  0.00    -0.025 A 
ATOM     29  C   UNL     1     116.575 113.075  78.554  1.00  0.00     0.026 A 
ATOM     30  C   UNL     1     118.009 114.066  80.731  1.00  0.00    -0.046 A 
ATOM     31  C   UNL     1     117.906 112.704  78.739  1.00  0.00     0.002 A 
ATOM     32  C   UNL     1     118.624 113.199  79.828  1.00  0.00     0.004 A 
ATOM     33  C   UNL     1     116.021 115.365  81.520  1.00  0.00     0.047 C 
ATOM     34  C   UNL     1     118.799 114.580  81.890  1.00  0.00     0.044 C 
ENDBRANCH   2  27
TORSDOF 4
ENDMDL
MODEL 9
REMARK VINA RESULT:     -10.0      1.768      2.706
REMARK SMILES Cc1cccc(N2CCN(C(=O)c3cccc(S(=O)(=O)N4CCc5ccccc54)c3)CC2)c1C
REMARK SMILES IDX 12 1 7 2 10 3 8 4 32 5 9 6 31 7 11 8 13 9 17 10 30 11 16 12
REMARK SMILES IDX 15 13 14 14 18 15 19 16 20 17 21 18 22 19 29 20 23 21 24 22
REMARK SMILES IDX 28 23 25 24 27 25 26 26 6 27 33 28 5 29 2 30 4 31 3 32 34 33
REMARK SMILES IDX 1 34
REMARK H PARENT
ROOT
ATOM      1  O   UNL     1     111.232 114.737  80.912  1.00  0.00    -0.269 OA
ATOM      2  N   UNL     1     108.535 112.098  77.825  1.00  0.00    -0.368 N 
ATOM      3  N   UNL     1     110.612 113.611  78.987  1.00  0.00    -0.335 N 
ATOM      4  C   UNL     1     108.234 113.000  78.949  1.00  0.00     0.138 C 
ATOM      5  C   UNL     1     109.919 111.606  77.743  1.00  0.00     0.138 C 
ATOM      6  C   UNL     1     109.251 114.139  79.008  1.00  0.00     0.141 C 
ATOM      7  C   UNL     1     110.900 112.774  77.819  1.00  0.00     0.141 C 
ATOM      8  C   UNL     1     111.527 113.974  79.989  1.00  0.00     0.254 C 
ENDROOT
BRANCH   8   9
ATOM      9  C   UNL     1     112.869 113.408  79.908  1.00  0.00     0.041 A 
ATOM     10  C   UNL     1     115.171 113.591  79.265  1.00  0.00     0.088 A 
ATOM     11  C   UNL     1     113.904 114.145  79.333  1.00  0.00     0.036 A 
ATOM     12  C   UNL     1     115.434 112.322  79.751  1.00  0.00     0.022 A 
ATOM     13  C   UNL     1     114.398 111.585  80.324  1.00  0.00     0.002 A 
ATOM     14  C   UNL     1     113.117 112.127  80.402  1.00  0.00     0.014 A 
BRANCH  10  15
ATOM     15  S   UNL     1     116.484 114.525  78.537  1.00  0.00     0.264 S 
ATOM     16  O   UNL     1     117.352 113.588  77.845  1.00  0.00    -0.201 OA
ATOM     17  O   UNL     1     115.887 115.637  77.821  1.00  0.00    -0.201 OA
BRANCH  15  18
ATOM     18  N   UNL     1     117.265 115.101  79.930  1.00  0.00    -0.266 N 
ATOM     19  C   UNL     1     116.412 115.719  81.004  1.00  0.00     0.140 C 
ATOM     20  C   UNL     1     118.185 114.224  80.594  1.00  0.00     0.055 A 
ATOM     21  C   UNL     1     117.205 115.551  82.313  1.00  0.00     0.060 C 
ATOM     22  C   UNL     1     118.171 114.464  81.966  1.00  0.00    -0.022 A 
ATOM     23  C   UNL     1     119.078 113.331  80.026  1.00  0.00     0.027 A 
ATOM     24  C   UNL     1     119.022 113.779  82.818  1.00  0.00     0.006 A 
ATOM     25  C   UNL     1     119.933 112.628  80.878  1.00  0.00     0.002 A 
ATOM     26  C   UNL     1     119.902 112.847  82.265  1.00  0.00     0.000 A 
ENDBRANCH  15  18
ENDBRANCH  10  15
ENDBRANCH   8   9
BRANCH   2  27
ATOM     27  C   UNL     1     107.492 111.306  77.330  1.00  0.00     0.040 A 
ATOM     28  C   UNL     1     106.195 111.322  77.898  1.00  0.00    -0.025 A 
ATOM     29  C   UNL     1     107.702 110.445  76.226  1.00  0.00     0.026 A 
ATOM     30  C   UNL     1     105.169 110.523  77.392  1.00  0.00    -0.046 A 
ATOM     31  C   UNL     1     106.677 109.647  75.720  1.00  0.00     0.002 A 
ATOM     32  C   UNL     1     105.410 109.685  76.303  1.00  0.00     0.004 A 
ATOM     33  C   UNL     1     105.931 112.221  79.065  1.00  0.00     0.047 C 
ATOM     34  C   UNL     1     103.804 110.548  77.996  1.00  0.00     0.044 C 
ENDBRANCH   2  27
TORSDOF 4
ENDMDL
MODEL 10
REMARK VINA RESULT:      -9.9      3.264      8.952
REMARK SMILES Cc1cccc(N2CCN(C(=O)c3cccc(S(=O)(=O)N4CCc5ccccc54)c3)CC2)c1C
REMARK SMILES IDX 12 1 7 2 10 3 8 4 32 5 9 6 31 7 11 8 13 9 17 10 30 11 16 12
REMARK SMILES IDX 15 13 14 14 18 15 19 16 20 17 21 18 22 19 29 20 23 21 24 22
REMARK SMILES IDX 28 23 25 24 27 25 26 26 6 27 33 28 5 29 2 30 4 31 3 32 34 33
REMARK SMILES IDX 1 34
REMARK H PARENT
ROOT
ATOM      1  O   UNL     1     109.296 115.944  77.505  1.00  0.00    -0.269 OA
ATOM      2  N   UNL     1     113.566 114.005  78.833  1.00  0.00    -0.368 N 
ATOM      3  N   UNL     1     110.821 114.622  78.635  1.00  0.00    -0.335 N 
ATOM      4  C   UNL     1     113.152 115.293  78.253  1.00  0.00     0.138 C 
ATOM      5  C   UNL     1     112.586 112.912  78.748  1.00  0.00     0.138 C 
ATOM      6  C   UNL     1     111.784 115.708  78.792  1.00  0.00     0.141 C 
ATOM      7  C   UNL     1     111.232 113.374  79.284  1.00  0.00     0.141 C 
ATOM      8  C   UNL     1     109.602 114.846  77.973  1.00  0.00     0.254 C 
ENDROOT
BRANCH   8   9
ATOM      9  C   UNL     1     108.689 113.715  77.851  1.00  0.00     0.041 A 
ATOM     10  C   UNL     1     107.427 112.196  76.493  1.00  0.00     0.088 A 
ATOM     11  C   UNL     1     108.294 113.271  76.589  1.00  0.00     0.036 A 
ATOM     12  C   UNL     1     106.941 111.554  77.618  1.00  0.00     0.022 A 
ATOM     13  C   UNL     1     107.336 112.000  78.880  1.00  0.00     0.002 A 
ATOM     14  C   UNL     1     108.209 113.079  78.996  1.00  0.00     0.014 A 
BRANCH  10  15
ATOM     15  S   UNL     1     106.926 111.631  74.894  1.00  0.00     0.264 S 
ATOM     16  O   UNL     1     106.401 110.286  75.054  1.00  0.00    -0.201 OA
ATOM     17  O   UNL     1     106.108 112.671  74.298  1.00  0.00    -0.201 OA
BRANCH  15  18
ATOM     18  N   UNL     1     108.426 111.565  74.103  1.00  0.00    -0.266 N 
ATOM     19  C   UNL     1     108.832 112.753  73.275  1.00  0.00     0.140 C 
ATOM     20  C   UNL     1     109.576 111.194  74.876  1.00  0.00     0.055 A 
ATOM     21  C   UNL     1     110.371 112.723  73.230  1.00  0.00     0.060 C 
ATOM     22  C   UNL     1     110.708 111.846  74.393  1.00  0.00    -0.022 A 
ATOM     23  C   UNL     1     109.661 110.250  75.886  1.00  0.00     0.027 A 
ATOM     24  C   UNL     1     111.957 111.603  74.941  1.00  0.00     0.006 A 
ATOM     25  C   UNL     1     110.915 110.006  76.451  1.00  0.00     0.002 A 
ATOM     26  C   UNL     1     112.054 110.682  75.985  1.00  0.00     0.000 A 
ENDBRANCH  15  18
ENDBRANCH  10  15
ENDBRANCH   8   9
BRANCH   2  27
ATOM     27  C   UNL     1     114.934 113.705  78.839  1.00  0.00     0.040 A 
ATOM     28  C   UNL     1     115.810 114.189  79.840  1.00  0.00    -0.025 A 
ATOM     29  C   UNL     1     115.498 112.895  77.824  1.00  0.00     0.026 A 
ATOM     30  C   UNL     1     117.171 113.882  79.827  1.00  0.00    -0.046 A 
ATOM     31  C   UNL     1     116.858 112.588  77.811  1.00  0.00     0.002 A 
ATOM     32  C   UNL     1     117.695 113.081  78.813  1.00  0.00     0.004 A 
ATOM     33  C   UNL     1     115.251 115.047  80.932  1.00  0.00     0.047 C 
ATOM     34  C   UNL     1     118.087 114.395  80.889  1.00  0.00     0.044 C 
ENDBRANCH   2  27
TORSDOF 4
ENDMDL
MODEL 11
REMARK VINA RESULT:      -9.8      3.128      9.039
REMARK SMILES Cc1cccc(N2CCN(C(=O)c3cccc(S(=O)(=O)N4CCc5ccccc54)c3)CC2)c1C
REMARK SMILES IDX 12 1 7 2 10 3 8 4 32 5 9 6 31 7 11 8 13 9 17 10 30 11 16 12
REMARK SMILES IDX 15 13 14 14 18 15 19 16 20 17 21 18 22 19 29 20 23 21 24 22
REMARK SMILES IDX 28 23 25 24 27 25 26 26 6 27 33 28 5 29 2 30 4 31 3 32 34 33
REMARK SMILES IDX 1 34
REMARK H PARENT
ROOT
ATOM      1  O   UNL     1     108.978 115.222  79.888  1.00  0.00    -0.269 OA
ATOM      2  N   UNL     1     113.731 114.149  80.021  1.00  0.00    -0.368 N 
ATOM      3  N   UNL     1     110.958 114.083  79.515  1.00  0.00    -0.335 N 
ATOM      4  C   UNL     1     112.816 114.897  80.899  1.00  0.00     0.138 C 
ATOM      5  C   UNL     1     113.254 113.895  78.654  1.00  0.00     0.138 C 
ATOM      6  C   UNL     1     111.426 114.264  80.886  1.00  0.00     0.141 C 
ATOM      7  C   UNL     1     111.858 113.275  78.689  1.00  0.00     0.141 C 
ATOM      8  C   UNL     1     109.715 114.603  79.117  1.00  0.00     0.254 C 
ENDROOT
BRANCH   8   9
ATOM      9  C   UNL     1     109.312 114.387  77.732  1.00  0.00     0.041 A 
ATOM     10  C   UNL     1     108.165 113.087  76.076  1.00  0.00     0.088 A 
ATOM     11  C   UNL     1     108.539 113.275  77.395  1.00  0.00     0.036 A 
ATOM     12  C   UNL     1     108.542 113.974  75.082  1.00  0.00     0.022 A 
ATOM     13  C   UNL     1     109.316 115.085  75.419  1.00  0.00     0.002 A 
ATOM     14  C   UNL     1     109.700 115.291  76.743  1.00  0.00     0.014 A 
BRANCH  10  15
ATOM     15  S   UNL     1     107.186 111.679  75.647  1.00  0.00     0.264 S 
ATOM     16  O   UNL     1     107.091 110.839  76.829  1.00  0.00    -0.201 OA
ATOM     17  O   UNL     1     105.983 112.164  74.995  1.00  0.00    -0.201 OA
BRANCH  15  18
ATOM     18  N   UNL     1     108.193 110.936  74.501  1.00  0.00    -0.266 N 
ATOM     19  C   UNL     1     108.051 111.361  73.066  1.00  0.00     0.140 C 
ATOM     20  C   UNL     1     109.600 110.890  74.775  1.00  0.00     0.055 A 
ATOM     21  C   UNL     1     109.410 111.065  72.406  1.00  0.00     0.060 C 
ATOM     22  C   UNL     1     110.322 110.961  73.586  1.00  0.00    -0.022 A 
ATOM     23  C   UNL     1     110.230 110.685  75.992  1.00  0.00     0.027 A 
ATOM     24  C   UNL     1     111.705 110.875  73.587  1.00  0.00     0.006 A 
ATOM     25  C   UNL     1     111.624 110.608  76.003  1.00  0.00     0.002 A 
ATOM     26  C   UNL     1     112.357 110.707  74.810  1.00  0.00     0.000 A 
ENDBRANCH  15  18
ENDBRANCH  10  15
ENDBRANCH   8   9
BRANCH   2  27
ATOM     27  C   UNL     1     115.105 114.274  80.260  1.00  0.00     0.040 A 
ATOM     28  C   UNL     1     116.058 113.417  79.658  1.00  0.00    -0.025 A 
ATOM     29  C   UNL     1     115.598 115.277  81.128  1.00  0.00     0.026 A 
ATOM     30  C   UNL     1     117.423 113.555  79.911  1.00  0.00    -0.046 A 
ATOM     31  C   UNL     1     116.963 115.415  81.381  1.00  0.00     0.002 A 
ATOM     32  C   UNL     1     117.876 114.554  80.772  1.00  0.00     0.004 A 
ATOM     33  C   UNL     1     115.578 112.344  78.731  1.00  0.00     0.047 C 
ATOM     34  C   UNL     1     118.422 112.647  79.269  1.00  0.00     0.044 C 
ENDBRANCH   2  27
TORSDOF 4
ENDMDL
MODEL 12
REMARK VINA RESULT:      -9.4      3.611     10.579
REMARK SMILES Cc1cccc(N2CCN(C(=O)c3cccc(S(=O)(=O)N4CCc5ccccc54)c3)CC2)c1C
REMARK SMILES IDX 12 1 7 2 10 3 8 4 32 5 9 6 31 7 11 8 13 9 17 10 30 11 16 12
REMARK SMILES IDX 15 13 14 14 18 15 19 16 20 17 21 18 22 19 29 20 23 21 24 22
REMARK SMILES IDX 28 23 25 24 27 25 26 26 6 27 33 28 5 29 2 30 4 31 3 32 34 33
REMARK SMILES IDX 1 34
REMARK H PARENT
ROOT
ATOM      1  O   UNL     1     110.177 115.754  76.827  1.00  0.00    -0.269 OA
ATOM      2  N   UNL     1     114.202 113.980  78.929  1.00  0.00    -0.368 N 
ATOM      3  N   UNL     1     111.540 114.366  78.081  1.00  0.00    -0.335 N 
ATOM      4  C   UNL     1     113.764 115.319  78.501  1.00  0.00     0.138 C 
ATOM      5  C   UNL     1     113.451 112.845  78.372  1.00  0.00     0.138 C 
ATOM      6  C   UNL     1     112.257 115.477  78.699  1.00  0.00     0.141 C 
ATOM      7  C   UNL     1     111.952 113.051  78.580  1.00  0.00     0.141 C 
ATOM      8  C   UNL     1     110.513 114.613  77.154  1.00  0.00     0.254 C 
ENDROOT
BRANCH   8   9
ATOM      9  C   UNL     1     109.841 113.456  76.575  1.00  0.00     0.041 A 
ATOM     10  C   UNL     1     108.125 111.785  76.663  1.00  0.00     0.088 A 
ATOM     11  C   UNL     1     108.751 112.882  77.228  1.00  0.00     0.036 A 
ATOM     12  C   UNL     1     108.558 111.241  75.465  1.00  0.00     0.022 A 
ATOM     13  C   UNL     1     109.649 111.815  74.813  1.00  0.00     0.002 A 
ATOM     14  C   UNL     1     110.290 112.921  75.367  1.00  0.00     0.014 A 
BRANCH  10  15
ATOM     15  S   UNL     1     106.743 111.056  77.490  1.00  0.00     0.264 S 
ATOM     16  O   UNL     1     106.306 109.924  76.692  1.00  0.00    -0.201 OA
ATOM     17  O   UNL     1     107.111 110.874  78.882  1.00  0.00    -0.201 OA
BRANCH  15  18
ATOM     18  N   UNL     1     105.608 112.312  77.363  1.00  0.00    -0.266 N 
ATOM     19  C   UNL     1     105.021 112.589  76.007  1.00  0.00     0.140 C 
ATOM     20  C   UNL     1     104.515 112.325  78.291  1.00  0.00     0.055 A 
ATOM     21  C   UNL     1     103.656 113.250  76.270  1.00  0.00     0.060 C 
ATOM     22  C   UNL     1     103.380 112.861  77.687  1.00  0.00    -0.022 A 
ATOM     23  C   UNL     1     104.528 111.988  79.635  1.00  0.00     0.027 A 
ATOM     24  C   UNL     1     102.207 113.033  78.404  1.00  0.00     0.006 A 
ATOM     25  C   UNL     1     103.347 112.148  80.362  1.00  0.00     0.002 A 
ATOM     26  C   UNL     1     102.193 112.663  79.749  1.00  0.00     0.000 A 
ENDBRANCH  15  18
ENDBRANCH  10  15
ENDBRANCH   8   9
BRANCH   2  27
ATOM     27  C   UNL     1     115.551 113.815  79.266  1.00  0.00     0.040 A 
ATOM     28  C   UNL     1     116.129 114.437  80.398  1.00  0.00    -0.025 A 
ATOM     29  C   UNL     1     116.399 113.008  78.469  1.00  0.00     0.026 A 
ATOM     30  C   UNL     1     117.477 114.262  80.716  1.00  0.00    -0.046 A 
ATOM     31  C   UNL     1     117.746 112.833  78.787  1.00  0.00     0.002 A 
ATOM     32  C   UNL     1     118.285 113.461  79.910  1.00  0.00     0.004 A 
ATOM     33  C   UNL     1     115.266 115.296  81.267  1.00  0.00     0.047 C 
ATOM     34  C   UNL     1     118.078 114.921  81.914  1.00  0.00     0.044 C 
ENDBRANCH   2  27
TORSDOF 4
ENDMDL
MODEL 13
REMARK VINA RESULT:      -9.3      2.270      4.173
REMARK SMILES Cc1cccc(N2CCN(C(=O)c3cccc(S(=O)(=O)N4CCc5ccccc54)c3)CC2)c1C
REMARK SMILES IDX 12 1 7 2 10 3 8 4 32 5 9 6 31 7 11 8 13 9 17 10 30 11 16 12
REMARK SMILES IDX 15 13 14 14 18 15 19 16 20 17 21 18 22 19 29 20 23 21 24 22
REMARK SMILES IDX 28 23 25 24 27 25 26 26 6 27 33 28 5 29 2 30 4 31 3 32 34 33
REMARK SMILES IDX 1 34
REMARK H PARENT
ROOT
ATOM      1  O   UNL     1     107.677 112.449  79.075  1.00  0.00    -0.269 OA
ATOM      2  N   UNL     1     108.749 113.225  74.384  1.00  0.00    -0.368 N 
ATOM      3  N   UNL     1     108.456 113.513  77.174  1.00  0.00    -0.335 N 
ATOM      4  C   UNL     1     107.740 112.422  75.094  1.00  0.00     0.138 C 
ATOM      5  C   UNL     1     109.894 113.682  75.186  1.00  0.00     0.138 C 
ATOM      6  C   UNL     1     107.297 113.129  76.374  1.00  0.00     0.141 C 
ATOM      7  C   UNL     1     109.406 114.370  76.459  1.00  0.00     0.141 C 
ATOM      8  C   UNL     1     108.549 113.120  78.520  1.00  0.00     0.254 C 
ENDROOT
BRANCH   8   9
ATOM      9  C   UNL     1     109.736 113.537  79.259  1.00  0.00     0.041 A 
ATOM     10  C   UNL     1     112.079 113.333  79.721  1.00  0.00     0.088 A 
ATOM     11  C   UNL     1     110.964 112.924  79.010  1.00  0.00     0.036 A 
ATOM     12  C   UNL     1     112.004 114.335  80.673  1.00  0.00     0.022 A 
ATOM     13  C   UNL     1     110.775 114.947  80.922  1.00  0.00     0.002 A 
ATOM     14  C   UNL     1     109.642 114.548  80.215  1.00  0.00     0.014 A 
BRANCH  10  15
ATOM     15  S   UNL     1     113.636 112.558  79.407  1.00  0.00     0.264 S 
ATOM     16  O   UNL     1     113.762 111.445  80.333  1.00  0.00    -0.201 OA
ATOM     17  O   UNL     1     113.735 112.335  77.976  1.00  0.00    -0.201 OA
BRANCH  15  18
ATOM     18  N   UNL     1     114.699 113.800  79.863  1.00  0.00    -0.266 N 
ATOM     19  C   UNL     1     116.108 113.417  80.221  1.00  0.00     0.140 C 
ATOM     20  C   UNL     1     114.792 114.949  79.010  1.00  0.00     0.055 A 
ATOM     21  C   UNL     1     116.961 114.672  79.959  1.00  0.00     0.060 C 
ATOM     22  C   UNL     1     116.084 115.470  79.049  1.00  0.00    -0.022 A 
ATOM     23  C   UNL     1     113.777 115.584  78.313  1.00  0.00     0.027 A 
ATOM     24  C   UNL     1     116.407 116.622  78.350  1.00  0.00     0.006 A 
ATOM     25  C   UNL     1     114.097 116.739  77.598  1.00  0.00     0.002 A 
ATOM     26  C   UNL     1     115.404 117.252  77.612  1.00  0.00     0.000 A 
ENDBRANCH  15  18
ENDBRANCH  10  15
ENDBRANCH   8   9
BRANCH   2  27
ATOM     27  C   UNL     1     108.917 112.994  73.013  1.00  0.00     0.040 A 
ATOM     28  C   UNL     1     109.684 111.913  72.516  1.00  0.00    -0.025 A 
ATOM     29  C   UNL     1     108.315 113.850  72.059  1.00  0.00     0.026 A 
ATOM     30  C   UNL     1     109.841 111.701  71.146  1.00  0.00    -0.046 A 
ATOM     31  C   UNL     1     108.472 113.638  70.690  1.00  0.00     0.002 A 
ATOM     32  C   UNL     1     109.235 112.563  70.233  1.00  0.00     0.004 A 
ATOM     33  C   UNL     1     110.335 110.983  73.493  1.00  0.00     0.047 C 
ATOM     34  C   UNL     1     110.651 110.556  70.631  1.00  0.00     0.044 C 
ENDBRANCH   2  27
TORSDOF 4
ENDMDL
MODEL 14
REMARK VINA RESULT:      -9.3      3.227     10.457
REMARK SMILES Cc1cccc(N2CCN(C(=O)c3cccc(S(=O)(=O)N4CCc5ccccc54)c3)CC2)c1C
REMARK SMILES IDX 12 1 7 2 10 3 8 4 32 5 9 6 31 7 11 8 13 9 17 10 30 11 16 12
REMARK SMILES IDX 15 13 14 14 18 15 19 16 20 17 21 18 22 19 29 20 23 21 24 22
REMARK SMILES IDX 28 23 25 24 27 25 26 26 6 27 33 28 5 29 2 30 4 31 3 32 34 33
REMARK SMILES IDX 1 34
REMARK H PARENT
ROOT
ATOM      1  O   UNL     1     110.212 114.909  76.685  1.00  0.00    -0.269 OA
ATOM      2  N   UNL     1     114.008 114.302  79.682  1.00  0.00    -0.368 N 
ATOM      3  N   UNL     1     111.498 114.072  78.417  1.00  0.00    -0.335 N 
ATOM      4  C   UNL     1     113.496 115.424  78.878  1.00  0.00     0.138 C 
ATOM      5  C   UNL     1     113.496 112.969  79.333  1.00  0.00     0.138 C 
ATOM      6  C   UNL     1     111.969 115.392  78.826  1.00  0.00     0.141 C 
ATOM      7  C   UNL     1     111.970 112.986  79.280  1.00  0.00     0.141 C 
ATOM      8  C   UNL     1     110.618 113.940  77.329  1.00  0.00     0.254 C 
ENDROOT
BRANCH   8   9
ATOM      9  C   UNL     1     110.191 112.592  76.974  1.00  0.00     0.041 A 
ATOM     10  C   UNL     1     108.598 111.110  75.966  1.00  0.00     0.088 A 
ATOM     11  C   UNL     1     108.988 112.397  76.295  1.00  0.00     0.036 A 
ATOM     12  C   UNL     1     109.373 110.012  76.296  1.00  0.00     0.022 A 
ATOM     13  C   UNL     1     110.575 110.207  76.976  1.00  0.00     0.002 A 
ATOM     14  C   UNL     1     110.984 111.496  77.315  1.00  0.00     0.014 A 
BRANCH  10  15
ATOM     15  S   UNL     1     107.074 110.862  75.105  1.00  0.00     0.264 S 
ATOM     16  O   UNL     1     106.449 109.675  75.662  1.00  0.00    -0.201 OA
ATOM     17  O   UNL     1     106.365 112.128  75.096  1.00  0.00    -0.201 OA
BRANCH  15  18
ATOM     18  N   UNL     1     107.650 110.522  73.545  1.00  0.00    -0.266 N 
ATOM     19  C   UNL     1     106.907 109.498  72.734  1.00  0.00     0.140 C 
ATOM     20  C   UNL     1     107.907 111.629  72.670  1.00  0.00     0.055 A 
ATOM     21  C   UNL     1     107.196 109.843  71.261  1.00  0.00     0.060 C 
ATOM     22  C   UNL     1     107.654 111.263  71.349  1.00  0.00    -0.022 A 
ATOM     23  C   UNL     1     108.441 112.867  72.987  1.00  0.00     0.027 A 
ATOM     24  C   UNL     1     107.887 112.148  70.309  1.00  0.00     0.006 A 
ATOM     25  C   UNL     1     108.668 113.769  71.946  1.00  0.00     0.002 A 
ATOM     26  C   UNL     1     108.389 113.414  70.616  1.00  0.00     0.000 A 
ENDBRANCH  15  18
ENDBRANCH  10  15
ENDBRANCH   8   9
BRANCH   2  27
ATOM     27  C   UNL     1     115.292 114.427  80.227  1.00  0.00     0.040 A 
ATOM     28  C   UNL     1     116.386 113.652  79.772  1.00  0.00    -0.025 A 
ATOM     29  C   UNL     1     115.545 115.348  81.272  1.00  0.00     0.026 A 
ATOM     30  C   UNL     1     117.657 113.788  80.330  1.00  0.00    -0.046 A 
ATOM     31  C   UNL     1     116.816 115.485  81.830  1.00  0.00     0.002 A 
ATOM     32  C   UNL     1     117.872 114.705  81.359  1.00  0.00     0.004 A 
ATOM     33  C   UNL     1     116.160 112.668  78.666  1.00  0.00     0.047 C 
ATOM     34  C   UNL     1     118.805 112.967  79.842  1.00  0.00     0.044 C 
ENDBRANCH   2  27
TORSDOF 4
ENDMDL
MODEL 15
REMARK VINA RESULT:      -9.2      2.072      3.332
REMARK SMILES Cc1cccc(N2CCN(C(=O)c3cccc(S(=O)(=O)N4CCc5ccccc54)c3)CC2)c1C
REMARK SMILES IDX 12 1 7 2 10 3 8 4 32 5 9 6 31 7 11 8 13 9 17 10 30 11 16 12
REMARK SMILES IDX 15 13 14 14 18 15 19 16 20 17 21 18 22 19 29 20 23 21 24 22
REMARK SMILES IDX 28 23 25 24 27 25 26 26 6 27 33 28 5 29 2 30 4 31 3 32 34 33
REMARK SMILES IDX 1 34
REMARK H PARENT
ROOT
ATOM      1  O   UNL     1     111.266 110.375  79.303  1.00  0.00    -0.269 OA
ATOM      2  N   UNL     1     109.608 111.649  74.900  1.00  0.00    -0.368 N 
ATOM      3  N   UNL     1     110.378 111.682  77.612  1.00  0.00    -0.335 N 
ATOM      4  C   UNL     1     109.693 110.382  75.645  1.00  0.00     0.138 C 
ATOM      5  C   UNL     1     110.445 112.750  75.398  1.00  0.00     0.138 C 
ATOM      6  C   UNL     1     109.488 110.626  77.139  1.00  0.00     0.141 C 
ATOM      7  C   UNL     1     110.219 112.950  76.895  1.00  0.00     0.141 C 
ATOM      8  C   UNL     1     111.230 111.452  78.706  1.00  0.00     0.254 C 
ENDROOT
BRANCH   8   9
ATOM      9  C   UNL     1     112.094 112.551  79.123  1.00  0.00     0.041 A 
ATOM     10  C   UNL     1     114.172 113.738  78.975  1.00  0.00     0.088 A 
ATOM     11  C   UNL     1     113.366 112.689  78.567  1.00  0.00     0.036 A 
ATOM     12  C   UNL     1     113.746 114.652  79.923  1.00  0.00     0.022 A 
ATOM     13  C   UNL     1     112.475 114.513  80.480  1.00  0.00     0.002 A 
ATOM     14  C   UNL     1     111.650 113.463  80.080  1.00  0.00     0.014 A 
BRANCH  10  15
ATOM     15  S   UNL     1     115.784 113.914  78.271  1.00  0.00     0.264 S 
ATOM     16  O   UNL     1     115.863 113.013  77.134  1.00  0.00    -0.201 OA
ATOM     17  O   UNL     1     116.035 115.333  78.100  1.00  0.00    -0.201 OA
BRANCH  15  18
ATOM     18  N   UNL     1     116.743 113.317  79.537  1.00  0.00    -0.266 N 
ATOM     19  C   UNL     1     118.005 112.585  79.173  1.00  0.00     0.140 C 
ATOM     20  C   UNL     1     117.084 114.216  80.601  1.00  0.00     0.055 A 
ATOM     21  C   UNL     1     118.939 112.734  80.388  1.00  0.00     0.060 C 
ATOM     22  C   UNL     1     118.343 113.901  81.109  1.00  0.00    -0.022 A 
ATOM     23  C   UNL     1     116.297 115.197  81.180  1.00  0.00     0.027 A 
ATOM     24  C   UNL     1     118.870 114.594  82.187  1.00  0.00     0.006 A 
ATOM     25  C   UNL     1     116.824 115.908  82.261  1.00  0.00     0.002 A 
ATOM     26  C   UNL     1     118.103 115.611  82.757  1.00  0.00     0.000 A 
ENDBRANCH  15  18
ENDBRANCH  10  15
ENDBRANCH   8   9
BRANCH   2  27
ATOM     27  C   UNL     1     109.300 111.580  73.536  1.00  0.00     0.040 A 
ATOM     28  C   UNL     1     108.136 110.934  73.054  1.00  0.00    -0.025 A 
ATOM     29  C   UNL     1     110.159 112.163  72.572  1.00  0.00     0.026 A 
ATOM     30  C   UNL     1     107.848 110.874  71.691  1.00  0.00    -0.046 A 
ATOM     31  C   UNL     1     109.871 112.103  71.209  1.00  0.00     0.002 A 
ATOM     32  C   UNL     1     108.715 111.458  70.768  1.00  0.00     0.004 A 
ATOM     33  C   UNL     1     107.201 110.307  74.041  1.00  0.00     0.047 C 
ATOM     34  C   UNL     1     106.616 110.192  71.192  1.00  0.00     0.044 C 
ENDBRANCH   2  27
TORSDOF 4
ENDMDL
