MODEL 1
REMARK VINA RESULT:     -11.1      0.000      0.000
REMARK SMILES COc1cccc([C@@H]2c3[nH]c4ccccc4c3C[C@H]3C(=O)N(C4CCCCC4)CC(=O)N23)c1
REMARK SMILES IDX 7 1 33 2 6 3 3 4 5 5 4 6 8 7 21 8 20 9 22 10 19 11 29 12
REMARK SMILES IDX 32 13 18 14 30 15 17 16 31 17 9 18 16 19 10 20 11 21 15 22
REMARK SMILES IDX 12 23 14 24 13 25 23 27 24 28 28 29 25 30 27 31 26 32 2 33
REMARK SMILES IDX 1 34
REMARK H PARENT 10 26
ROOT
ATOM      1  C   UNL     1     107.604 110.853  74.102  1.00  0.00    -0.016 A 
ATOM      2  C   UNL     1     107.785 112.081  73.473  1.00  0.00     0.052 A 
ATOM      3  C   UNL     1     107.197 109.741  73.369  1.00  0.00     0.006 A 
ATOM      4  C   UNL     1     107.556 112.200  72.102  1.00  0.00     0.119 A 
ATOM      5  C   UNL     1     106.968 109.859  71.999  1.00  0.00     0.004 A 
ATOM      6  C   UNL     1     107.148 111.088  71.365  1.00  0.00     0.046 A 
ENDROOT
BRANCH   1   7
ATOM      7  C   UNL     1     107.855 110.723  75.596  1.00  0.00     0.164 C 
ATOM      8  O   UNL     1     108.831 113.242  79.180  1.00  0.00    -0.272 OA
ATOM      9  C   UNL     1     109.326 112.841  78.130  1.00  0.00     0.246 C 
ATOM     10  N   UNL     1     110.640 112.372  77.994  1.00  0.00    -0.329 N 
ATOM     11  C   UNL     1     108.604 112.924  76.783  1.00  0.00     0.180 C 
ATOM     12  C   UNL     1     111.217 112.177  76.667  1.00  0.00     0.220 C 
ATOM     13  N   UNL     1     108.916 111.634  76.103  1.00  0.00    -0.316 N 
ATOM     14  C   UNL     1     107.112 113.301  76.919  1.00  0.00     0.073 C 
ATOM     15  C   UNL     1     110.263 111.292  75.898  1.00  0.00     0.243 C 
ATOM     16  C   UNL     1     106.261 112.095  77.033  1.00  0.00    -0.014 A 
ATOM     17  O   UNL     1     110.668 110.422  75.129  1.00  0.00    -0.273 OA
ATOM     18  C   UNL     1     106.621 110.930  76.401  1.00  0.00     0.047 A 
ATOM     19  C   UNL     1     105.030 111.863  77.703  1.00  0.00     0.003 A 
ATOM     20  N   UNL     1     105.670 109.985  76.661  1.00  0.00    -0.356 N 
ATOM     21  C   UNL     1     104.681 110.531  77.454  1.00  0.00     0.046 A 
ATOM     22  C   UNL     1     104.174 112.651  78.498  1.00  0.00     0.010 A 
ATOM     23  C   UNL     1     103.515 109.950  77.965  1.00  0.00     0.026 A 
ATOM     24  C   UNL     1     103.005 112.080  79.014  1.00  0.00     0.001 A 
ATOM     25  C   UNL     1     102.683 110.751  78.751  1.00  0.00     0.002 A 
ATOM     26  H   UNL     1     105.683 109.032  76.325  1.00  0.00     0.166 HD
BRANCH  10  27
ATOM     27  C   UNL     1     111.522 112.286  79.133  1.00  0.00     0.085 C 
ATOM     28  C   UNL     1     111.256 111.007  79.930  1.00  0.00     0.025 C 
ATOM     29  C   UNL     1     112.984 112.370  78.686  1.00  0.00     0.025 C 
ATOM     30  C   UNL     1     112.216 110.869  81.110  1.00  0.00     0.002 C 
ATOM     31  C   UNL     1     113.941 112.229  79.867  1.00  0.00     0.002 C 
ATOM     32  C   UNL     1     113.672 110.955  80.662  1.00  0.00     0.000 C 
ENDBRANCH  10  27
ENDBRANCH   1   7
BRANCH   4  33
ATOM     33  O   UNL     1     107.731 113.400  71.483  1.00  0.00    -0.497 OA
ATOM     34  C   UNL     1     109.074 113.845  71.297  1.00  0.00     0.278 C 
ENDBRANCH   4  33
TORSDOF 3
ENDMDL
MODEL 2
REMARK VINA RESULT:     -11.1      2.286      6.398
REMARK SMILES COc1cccc([C@@H]2c3[nH]c4ccccc4c3C[C@H]3C(=O)N(C4CCCCC4)CC(=O)N23)c1
REMARK SMILES IDX 7 1 33 2 6 3 3 4 5 5 4 6 8 7 21 8 20 9 22 10 19 11 29 12
REMARK SMILES IDX 32 13 18 14 30 15 17 16 31 17 9 18 16 19 10 20 11 21 15 22
REMARK SMILES IDX 12 23 14 24 13 25 23 27 24 28 28 29 25 30 27 31 26 32 2 33
REMARK SMILES IDX 1 34
REMARK H PARENT 10 26
ROOT
ATOM      1  C   UNL     1     109.888 111.397  74.416  1.00  0.00    -0.016 A 
ATOM      2  C   UNL     1     111.004 110.783  74.978  1.00  0.00     0.052 A 
ATOM      3  C   UNL     1     109.668 111.337  73.043  1.00  0.00     0.006 A 
ATOM      4  C   UNL     1     111.907 110.103  74.160  1.00  0.00     0.119 A 
ATOM      5  C   UNL     1     110.571 110.658  72.225  1.00  0.00     0.004 A 
ATOM      6  C   UNL     1     111.690 110.041  72.783  1.00  0.00     0.046 A 
ENDROOT
BRANCH   1   7
ATOM      7  C   UNL     1     108.903 112.137  75.308  1.00  0.00     0.164 C 
ATOM      8  O   UNL     1     106.785 111.705  79.241  1.00  0.00    -0.272 OA
ATOM      9  C   UNL     1     106.814 111.220  78.113  1.00  0.00     0.246 C 
ATOM     10  N   UNL     1     105.682 110.866  77.366  1.00  0.00    -0.329 N 
ATOM     11  C   UNL     1     108.113 110.813  77.415  1.00  0.00     0.180 C 
ATOM     12  C   UNL     1     105.822 110.053  76.162  1.00  0.00     0.220 C 
ATOM     13  N   UNL     1     107.935 111.242  75.997  1.00  0.00    -0.316 N 
ATOM     14  C   UNL     1     109.377 111.317  78.146  1.00  0.00     0.073 C 
ATOM     15  C   UNL     1     106.835 110.745  75.279  1.00  0.00     0.243 C 
ATOM     16  C   UNL     1     109.798 112.643  77.639  1.00  0.00    -0.014 A 
ATOM     17  O   UNL     1     106.707 110.783  74.056  1.00  0.00    -0.273 OA
ATOM     18  C   UNL     1     109.580 112.985  76.326  1.00  0.00     0.047 A 
ATOM     19  C   UNL     1     110.453 113.735  78.267  1.00  0.00     0.003 A 
ATOM     20  N   UNL     1     110.065 114.245  76.121  1.00  0.00    -0.356 N 
ATOM     21  C   UNL     1     110.608 114.728  77.293  1.00  0.00     0.046 A 
ATOM     22  C   UNL     1     110.933 113.983  79.570  1.00  0.00     0.010 A 
ATOM     23  C   UNL     1     111.220 115.957  77.562  1.00  0.00     0.026 A 
ATOM     24  C   UNL     1     111.547 115.209  79.849  1.00  0.00     0.001 A 
ATOM     25  C   UNL     1     111.686 116.179  78.860  1.00  0.00     0.002 A 
ATOM     26  H   UNL     1     110.033 114.750  75.246  1.00  0.00     0.166 HD
BRANCH  10  27
ATOM     27  C   UNL     1     104.351 111.094  77.876  1.00  0.00     0.085 C 
ATOM     28  C   UNL     1     104.225 110.575  79.311  1.00  0.00     0.025 C 
ATOM     29  C   UNL     1     103.989 112.579  77.787  1.00  0.00     0.025 C 
ATOM     30  C   UNL     1     102.840 110.854  79.890  1.00  0.00     0.002 C 
ATOM     31  C   UNL     1     102.606 112.855  78.370  1.00  0.00     0.002 C 
ATOM     32  C   UNL     1     102.481 112.334  79.798  1.00  0.00     0.000 C 
ENDBRANCH  10  27
ENDBRANCH   1   7
BRANCH   4  33
ATOM     33  O   UNL     1     112.999 109.501  74.704  1.00  0.00    -0.497 OA
ATOM     34  C   UNL     1     113.826 108.740  73.825  1.00  0.00     0.278 C 
ENDBRANCH   4  33
TORSDOF 3
ENDMDL
MODEL 3
REMARK VINA RESULT:     -10.9      2.813      6.055
REMARK SMILES COc1cccc([C@@H]2c3[nH]c4ccccc4c3C[C@H]3C(=O)N(C4CCCCC4)CC(=O)N23)c1
REMARK SMILES IDX 7 1 33 2 6 3 3 4 5 5 4 6 8 7 21 8 20 9 22 10 19 11 29 12
REMARK SMILES IDX 32 13 18 14 30 15 17 16 31 17 9 18 16 19 10 20 11 21 15 22
REMARK SMILES IDX 12 23 14 24 13 25 23 27 24 28 28 29 25 30 27 31 26 32 2 33
REMARK SMILES IDX 1 34
REMARK H PARENT 10 26
ROOT
ATOM      1  C   UNL     1     108.230 112.611  77.449  1.00  0.00    -0.016 A 
ATOM      2  C   UNL     1     107.136 112.916  76.644  1.00  0.00     0.052 A 
ATOM      3  C   UNL     1     108.059 111.872  78.617  1.00  0.00     0.006 A 
ATOM      4  C   UNL     1     105.862 112.479  77.008  1.00  0.00     0.119 A 
ATOM      5  C   UNL     1     106.786 111.436  78.981  1.00  0.00     0.004 A 
ATOM      6  C   UNL     1     105.688 111.738  78.178  1.00  0.00     0.046 A 
ENDROOT
BRANCH   1   7
ATOM      7  C   UNL     1     109.618 113.087  77.052  1.00  0.00     0.164 C 
ATOM      8  O   UNL     1     113.929 112.523  78.167  1.00  0.00    -0.272 OA
ATOM      9  C   UNL     1     112.884 113.005  78.600  1.00  0.00     0.246 C 
ATOM     10  N   UNL     1     112.786 114.238  79.258  1.00  0.00    -0.329 N 
ATOM     11  C   UNL     1     111.553 112.249  78.590  1.00  0.00     0.180 C 
ATOM     12  C   UNL     1     111.562 114.593  79.970  1.00  0.00     0.220 C 
ATOM     13  N   UNL     1     110.538 113.272  78.206  1.00  0.00    -0.316 N 
ATOM     14  C   UNL     1     111.598 110.955  77.749  1.00  0.00     0.073 C 
ATOM     15  C   UNL     1     110.421 114.430  78.992  1.00  0.00     0.243 C 
ATOM     16  C   UNL     1     111.191 111.210  76.348  1.00  0.00    -0.014 A 
ATOM     17  O   UNL     1     109.472 115.213  78.970  1.00  0.00    -0.273 OA
ATOM     18  C   UNL     1     110.268 112.187  76.061  1.00  0.00     0.047 A 
ATOM     19  C   UNL     1     111.570 110.599  75.124  1.00  0.00     0.003 A 
ATOM     20  N   UNL     1     110.069 112.210  74.710  1.00  0.00    -0.356 N 
ATOM     21  C   UNL     1     110.852 111.245  74.111  1.00  0.00     0.046 A 
ATOM     22  C   UNL     1     112.453 109.559  74.771  1.00  0.00     0.010 A 
ATOM     23  C   UNL     1     110.978 110.900  72.761  1.00  0.00     0.026 A 
ATOM     24  C   UNL     1     112.586 109.204  73.423  1.00  0.00     0.001 A 
ATOM     25  C   UNL     1     111.859 109.866  72.437  1.00  0.00     0.002 A 
ATOM     26  H   UNL     1     109.444 112.836  74.221  1.00  0.00     0.166 HD
BRANCH  10  27
ATOM     27  C   UNL     1     113.944 115.078  79.445  1.00  0.00     0.085 C 
ATOM     28  C   UNL     1     114.965 114.398  80.361  1.00  0.00     0.025 C 
ATOM     29  C   UNL     1     114.565 115.442  78.093  1.00  0.00     0.025 C 
ATOM     30  C   UNL     1     116.223 115.247  80.529  1.00  0.00     0.002 C 
ATOM     31  C   UNL     1     115.824 116.288  78.264  1.00  0.00     0.002 C 
ATOM     32  C   UNL     1     116.838 115.611  79.181  1.00  0.00     0.000 C 
ENDBRANCH  10  27
ENDBRANCH   1   7
BRANCH   4  33
ATOM     33  O   UNL     1     104.790 112.775  76.224  1.00  0.00    -0.497 OA
ATOM     34  C   UNL     1     103.526 112.901  76.874  1.00  0.00     0.278 C 
ENDBRANCH   4  33
TORSDOF 3
ENDMDL
MODEL 4
REMARK VINA RESULT:     -10.7      2.046      5.606
REMARK SMILES COc1cccc([C@@H]2c3[nH]c4ccccc4c3C[C@H]3C(=O)N(C4CCCCC4)CC(=O)N23)c1
REMARK SMILES IDX 7 1 33 2 6 3 3 4 5 5 4 6 8 7 21 8 20 9 22 10 19 11 29 12
REMARK SMILES IDX 32 13 18 14 30 15 17 16 31 17 9 18 16 19 10 20 11 21 15 22
REMARK SMILES IDX 12 23 14 24 13 25 23 27 24 28 28 29 25 30 27 31 26 32 2 33
REMARK SMILES IDX 1 34
REMARK H PARENT 10 26
ROOT
ATOM      1  C   UNL     1     107.008 111.718  77.111  1.00  0.00    -0.016 A 
ATOM      2  C   UNL     1     106.337 112.141  78.255  1.00  0.00     0.052 A 
ATOM      3  C   UNL     1     106.514 110.656  76.357  1.00  0.00     0.006 A 
ATOM      4  C   UNL     1     105.163 111.498  78.649  1.00  0.00     0.119 A 
ATOM      5  C   UNL     1     105.341 110.013  76.751  1.00  0.00     0.004 A 
ATOM      6  C   UNL     1     104.665 110.433  77.896  1.00  0.00     0.046 A 
ENDROOT
BRANCH   1   7
ATOM      7  C   UNL     1     108.286 112.419  76.681  1.00  0.00     0.164 C 
ATOM      8  O   UNL     1     112.640 111.575  75.985  1.00  0.00    -0.272 OA
ATOM      9  C   UNL     1     111.813 111.651  76.891  1.00  0.00     0.246 C 
ATOM     10  N   UNL     1     112.041 112.262  78.131  1.00  0.00    -0.329 N 
ATOM     11  C   UNL     1     110.448 110.963  76.832  1.00  0.00     0.180 C 
ATOM     12  C   UNL     1     111.103 112.062  79.231  1.00  0.00     0.220 C 
ATOM     13  N   UNL     1     109.496 111.953  77.412  1.00  0.00    -0.316 N 
ATOM     14  C   UNL     1     110.112 110.405  75.431  1.00  0.00     0.073 C 
ATOM     15  C   UNL     1     109.731 112.429  78.712  1.00  0.00     0.243 C 
ATOM     16  C   UNL     1     109.379 111.402  74.617  1.00  0.00    -0.014 A 
ATOM     17  O   UNL     1     108.912 113.019  79.414  1.00  0.00    -0.273 OA
ATOM     18  C   UNL     1     108.537 112.304  75.219  1.00  0.00     0.047 A 
ATOM     19  C   UNL     1     109.343 111.641  73.218  1.00  0.00     0.003 A 
ATOM     20  N   UNL     1     107.989 113.097  74.251  1.00  0.00    -0.356 N 
ATOM     21  C   UNL     1     108.464 112.710  73.014  1.00  0.00     0.046 A 
ATOM     22  C   UNL     1     109.969 111.056  72.098  1.00  0.00     0.010 A 
ATOM     23  C   UNL     1     108.183 113.222  71.743  1.00  0.00     0.026 A 
ATOM     24  C   UNL     1     109.695 111.560  70.822  1.00  0.00     0.001 A 
ATOM     25  C   UNL     1     108.817 112.627  70.650  1.00  0.00     0.002 A 
ATOM     26  H   UNL     1     107.336 113.851  74.411  1.00  0.00     0.166 HD
BRANCH  10  27
ATOM     27  C   UNL     1     113.299 112.906  78.425  1.00  0.00     0.085 C 
ATOM     28  C   UNL     1     113.085 114.381  78.773  1.00  0.00     0.025 C 
ATOM     29  C   UNL     1     114.029 112.168  79.551  1.00  0.00     0.025 C 
ATOM     30  C   UNL     1     114.398 115.069  79.141  1.00  0.00     0.002 C 
ATOM     31  C   UNL     1     115.339 112.859  79.918  1.00  0.00     0.002 C 
ATOM     32  C   UNL     1     115.124 114.330  80.261  1.00  0.00     0.000 C 
ENDBRANCH  10  27
ENDBRANCH   1   7
BRANCH   4  33
ATOM     33  O   UNL     1     104.504 111.908  79.766  1.00  0.00    -0.497 OA
ATOM     34  C   UNL     1     103.326 111.186  80.126  1.00  0.00     0.278 C 
ENDBRANCH   4  33
TORSDOF 3
ENDMDL
MODEL 5
REMARK VINA RESULT:     -10.6      2.326      6.215
REMARK SMILES COc1cccc([C@@H]2c3[nH]c4ccccc4c3C[C@H]3C(=O)N(C4CCCCC4)CC(=O)N23)c1
REMARK SMILES IDX 7 1 33 2 6 3 3 4 5 5 4 6 8 7 21 8 20 9 22 10 19 11 29 12
REMARK SMILES IDX 32 13 18 14 30 15 17 16 31 17 9 18 16 19 10 20 11 21 15 22
REMARK SMILES IDX 12 23 14 24 13 25 23 27 24 28 28 29 25 30 27 31 26 32 2 33
REMARK SMILES IDX 1 34
REMARK H PARENT 10 26
ROOT
ATOM      1  C   UNL     1     109.952 111.386  74.608  1.00  0.00    -0.016 A 
ATOM      2  C   UNL     1     109.818 111.375  73.223  1.00  0.00     0.052 A 
ATOM      3  C   UNL     1     111.006 110.712  75.219  1.00  0.00     0.006 A 
ATOM      4  C   UNL     1     110.745 110.683  72.442  1.00  0.00     0.119 A 
ATOM      5  C   UNL     1     111.932 110.020  74.439  1.00  0.00     0.004 A 
ATOM      6  C   UNL     1     111.802 110.005  73.051  1.00  0.00     0.046 A 
ENDROOT
BRANCH   1   7
ATOM      7  C   UNL     1     108.943 112.141  75.459  1.00  0.00     0.164 C 
ATOM      8  O   UNL     1     106.697 111.765  79.326  1.00  0.00    -0.272 OA
ATOM      9  C   UNL     1     106.759 111.268  78.205  1.00  0.00     0.246 C 
ATOM     10  N   UNL     1     105.650 110.911  77.426  1.00  0.00    -0.329 N 
ATOM     11  C   UNL     1     108.079 110.846  77.554  1.00  0.00     0.180 C 
ATOM     12  C   UNL     1     105.824 110.084  76.236  1.00  0.00     0.220 C 
ATOM     13  N   UNL     1     107.949 111.259  76.127  1.00  0.00    -0.316 N 
ATOM     14  C   UNL     1     109.320 111.351  78.320  1.00  0.00     0.073 C 
ATOM     15  C   UNL     1     106.870 110.760  75.379  1.00  0.00     0.243 C 
ATOM     16  C   UNL     1     109.766 112.669  77.812  1.00  0.00    -0.014 A 
ATOM     17  O   UNL     1     106.782 110.785  74.152  1.00  0.00    -0.273 OA
ATOM     18  C   UNL     1     109.592 112.997  76.488  1.00  0.00     0.047 A 
ATOM     19  C   UNL     1     110.406 113.765  78.449  1.00  0.00     0.003 A 
ATOM     20  N   UNL     1     110.090 114.252  76.285  1.00  0.00    -0.356 N 
ATOM     21  C   UNL     1     110.598 114.745  77.469  1.00  0.00     0.046 A 
ATOM     22  C   UNL     1     110.845 114.024  79.763  1.00  0.00     0.010 A 
ATOM     23  C   UNL     1     111.208 115.974  77.744  1.00  0.00     0.026 A 
ATOM     24  C   UNL     1     111.457 115.250  80.049  1.00  0.00     0.001 A 
ATOM     25  C   UNL     1     111.633 116.208  79.054  1.00  0.00     0.002 A 
ATOM     26  H   UNL     1     110.090 114.747  75.404  1.00  0.00     0.166 HD
BRANCH  10  27
ATOM     27  C   UNL     1     104.305 111.151  77.890  1.00  0.00     0.085 C 
ATOM     28  C   UNL     1     104.126 110.638  79.321  1.00  0.00     0.025 C 
ATOM     29  C   UNL     1     103.960 112.640  77.786  1.00  0.00     0.025 C 
ATOM     30  C   UNL     1     102.725 110.930  79.853  1.00  0.00     0.002 C 
ATOM     31  C   UNL     1     102.559 112.930  78.320  1.00  0.00     0.002 C 
ATOM     32  C   UNL     1     102.382 112.413  79.745  1.00  0.00     0.000 C 
ENDBRANCH  10  27
ENDBRANCH   1   7
BRANCH   4  33
ATOM     33  O   UNL     1     110.618 110.668  71.087  1.00  0.00    -0.497 OA
ATOM     34  C   UNL     1     109.763 111.651  70.504  1.00  0.00     0.278 C 
ENDBRANCH   4  33
TORSDOF 3
ENDMDL
MODEL 6
REMARK VINA RESULT:     -10.3      2.203      5.548
REMARK SMILES COc1cccc([C@@H]2c3[nH]c4ccccc4c3C[C@H]3C(=O)N(C4CCCCC4)CC(=O)N23)c1
REMARK SMILES IDX 7 1 33 2 6 3 3 4 5 5 4 6 8 7 21 8 20 9 22 10 19 11 29 12
REMARK SMILES IDX 32 13 18 14 30 15 17 16 31 17 9 18 16 19 10 20 11 21 15 22
REMARK SMILES IDX 12 23 14 24 13 25 23 27 24 28 28 29 25 30 27 31 26 32 2 33
REMARK SMILES IDX 1 34
REMARK H PARENT 10 26
ROOT
ATOM      1  C   UNL     1     107.292 112.445  77.425  1.00  0.00    -0.016 A 
ATOM      2  C   UNL     1     106.113 112.857  76.811  1.00  0.00     0.052 A 
ATOM      3  C   UNL     1     107.253 111.572  78.509  1.00  0.00     0.006 A 
ATOM      4  C   UNL     1     104.885 112.393  77.283  1.00  0.00     0.119 A 
ATOM      5  C   UNL     1     106.026 111.109  78.982  1.00  0.00     0.004 A 
ATOM      6  C   UNL     1     104.842 111.519  78.370  1.00  0.00     0.046 A 
ENDROOT
BRANCH   1   7
ATOM      7  C   UNL     1     108.630 112.950  76.909  1.00  0.00     0.164 C 
ATOM      8  O   UNL     1     112.877 111.598  76.382  1.00  0.00    -0.272 OA
ATOM      9  C   UNL     1     112.067 111.884  77.260  1.00  0.00     0.246 C 
ATOM     10  N   UNL     1     112.360 112.645  78.400  1.00  0.00    -0.329 N 
ATOM     11  C   UNL     1     110.641 111.330  77.289  1.00  0.00     0.180 C 
ATOM     12  C   UNL     1     111.413 112.699  79.509  1.00  0.00     0.220 C 
ATOM     13  N   UNL     1     109.793 112.481  77.710  1.00  0.00    -0.316 N 
ATOM     14  C   UNL     1     110.245 110.608  75.982  1.00  0.00     0.073 C 
ATOM     15  C   UNL     1     110.080 113.116  78.930  1.00  0.00     0.243 C 
ATOM     16  C   UNL     1     109.608 111.542  75.025  1.00  0.00    -0.014 A 
ATOM     17  O   UNL     1     109.325 113.879  79.531  1.00  0.00    -0.273 OA
ATOM     18  C   UNL     1     108.860 112.600  75.482  1.00  0.00     0.047 A 
ATOM     19  C   UNL     1     109.588 111.577  73.606  1.00  0.00     0.003 A 
ATOM     20  N   UNL     1     108.387 113.291  74.403  1.00  0.00    -0.356 N 
ATOM     21  C   UNL     1     108.815 112.685  73.241  1.00  0.00     0.046 A 
ATOM     22  C   UNL     1     110.149 110.777  72.589  1.00  0.00     0.010 A 
ATOM     23  C   UNL     1     108.578 113.030  71.906  1.00  0.00     0.026 A 
ATOM     24  C   UNL     1     109.918 111.114  71.250  1.00  0.00     0.001 A 
ATOM     25  C   UNL     1     109.145 112.223  70.917  1.00  0.00     0.002 A 
ATOM     26  H   UNL     1     107.810 114.120  74.446  1.00  0.00     0.166 HD
BRANCH  10  27
ATOM     27  C   UNL     1     113.675 113.200  78.607  1.00  0.00     0.085 C 
ATOM     28  C   UNL     1     113.587 114.686  78.962  1.00  0.00     0.025 C 
ATOM     29  C   UNL     1     114.424 112.414  79.688  1.00  0.00     0.025 C 
ATOM     30  C   UNL     1     114.965 115.282  79.239  1.00  0.00     0.002 C 
ATOM     31  C   UNL     1     115.801 113.013  79.965  1.00  0.00     0.002 C 
ATOM     32  C   UNL     1     115.710 114.496  80.314  1.00  0.00     0.000 C 
ENDBRANCH  10  27
ENDBRANCH   1   7
BRANCH   4  33
ATOM     33  O   UNL     1     103.729 112.794  76.686  1.00  0.00    -0.497 OA
ATOM     34  C   UNL     1     102.707 113.314  77.535  1.00  0.00     0.278 C 
ENDBRANCH   4  33
TORSDOF 3
ENDMDL
MODEL 7
REMARK VINA RESULT:     -10.3      2.091      6.373
REMARK SMILES COc1cccc([C@@H]2c3[nH]c4ccccc4c3C[C@H]3C(=O)N(C4CCCCC4)CC(=O)N23)c1
REMARK SMILES IDX 7 1 33 2 6 3 3 4 5 5 4 6 8 7 21 8 20 9 22 10 19 11 29 12
REMARK SMILES IDX 32 13 18 14 30 15 17 16 31 17 9 18 16 19 10 20 11 21 15 22
REMARK SMILES IDX 12 23 14 24 13 25 23 27 24 28 28 29 25 30 27 31 26 32 2 33
REMARK SMILES IDX 1 34
REMARK H PARENT 10 26
ROOT
ATOM      1  C   UNL     1     109.188 112.981  74.046  1.00  0.00    -0.016 A 
ATOM      2  C   UNL     1     109.833 111.781  73.761  1.00  0.00     0.052 A 
ATOM      3  C   UNL     1     109.055 113.960  73.065  1.00  0.00     0.006 A 
ATOM      4  C   UNL     1     110.350 111.558  72.484  1.00  0.00     0.119 A 
ATOM      5  C   UNL     1     109.572 113.737  71.789  1.00  0.00     0.004 A 
ATOM      6  C   UNL     1     110.219 112.537  71.498  1.00  0.00     0.046 A 
ENDROOT
BRANCH   1   7
ATOM      7  C   UNL     1     108.623 113.224  75.437  1.00  0.00     0.164 C 
ATOM      8  O   UNL     1     107.845 111.058  79.291  1.00  0.00    -0.272 OA
ATOM      9  C   UNL     1     107.460 111.104  78.125  1.00  0.00     0.246 C 
ATOM     10  N   UNL     1     106.118 111.051  77.724  1.00  0.00    -0.329 N 
ATOM     11  C   UNL     1     108.417 111.093  76.931  1.00  0.00     0.180 C 
ATOM     12  C   UNL     1     105.779 110.837  76.320  1.00  0.00     0.220 C 
ATOM     13  N   UNL     1     107.840 112.077  75.970  1.00  0.00    -0.316 N 
ATOM     14  C   UNL     1     109.894 111.294  77.337  1.00  0.00     0.073 C 
ATOM     15  C   UNL     1     106.523 111.885  75.523  1.00  0.00     0.243 C 
ATOM     16  C   UNL     1     110.266 112.727  77.320  1.00  0.00    -0.014 A 
ATOM     17  O   UNL     1     106.014 112.436  74.548  1.00  0.00    -0.273 OA
ATOM     18  C   UNL     1     109.675 113.586  76.425  1.00  0.00     0.047 A 
ATOM     19  C   UNL     1     111.198 113.474  78.087  1.00  0.00     0.003 A 
ATOM     20  N   UNL     1     110.197 114.834  76.614  1.00  0.00    -0.356 N 
ATOM     21  C   UNL     1     111.135 114.794  77.625  1.00  0.00     0.046 A 
ATOM     22  C   UNL     1     112.093 113.164  79.131  1.00  0.00     0.010 A 
ATOM     23  C   UNL     1     111.925 115.817  78.161  1.00  0.00     0.026 A 
ATOM     24  C   UNL     1     112.888 114.180  79.673  1.00  0.00     0.001 A 
ATOM     25  C   UNL     1     112.803 115.484  79.195  1.00  0.00     0.002 A 
ATOM     26  H   UNL     1     109.939 115.662  76.095  1.00  0.00     0.166 HD
BRANCH  10  27
ATOM     27  C   UNL     1     105.053 110.978  78.694  1.00  0.00     0.085 C 
ATOM     28  C   UNL     1     104.786 112.353  79.311  1.00  0.00     0.025 C 
ATOM     29  C   UNL     1     103.787 110.398  78.057  1.00  0.00     0.025 C 
ATOM     30  C   UNL     1     103.625 112.310  80.302  1.00  0.00     0.002 C 
ATOM     31  C   UNL     1     102.627 110.359  79.050  1.00  0.00     0.002 C 
ATOM     32  C   UNL     1     102.365 111.730  79.666  1.00  0.00     0.000 C 
ENDBRANCH  10  27
ENDBRANCH   1   7
BRANCH   4  33
ATOM     33  O   UNL     1     110.982 110.387  72.200  1.00  0.00    -0.497 OA
ATOM     34  C   UNL     1     111.918 109.904  73.163  1.00  0.00     0.278 C 
ENDBRANCH   4  33
TORSDOF 3
ENDMDL
MODEL 8
REMARK VINA RESULT:      -9.8      0.947      1.594
REMARK SMILES COc1cccc([C@@H]2c3[nH]c4ccccc4c3C[C@H]3C(=O)N(C4CCCCC4)CC(=O)N23)c1
REMARK SMILES IDX 7 1 33 2 6 3 3 4 5 5 4 6 8 7 21 8 20 9 22 10 19 11 29 12
REMARK SMILES IDX 32 13 18 14 30 15 17 16 31 17 9 18 16 19 10 20 11 21 15 22
REMARK SMILES IDX 12 23 14 24 13 25 23 27 24 28 28 29 25 30 27 31 26 32 2 33
REMARK SMILES IDX 1 34
REMARK H PARENT 10 26
ROOT
ATOM      1  C   UNL     1     108.259 111.652  74.148  1.00  0.00    -0.016 A 
ATOM      2  C   UNL     1     107.837 110.695  73.230  1.00  0.00     0.052 A 
ATOM      3  C   UNL     1     108.489 112.964  73.743  1.00  0.00     0.006 A 
ATOM      4  C   UNL     1     107.642 111.053  71.895  1.00  0.00     0.119 A 
ATOM      5  C   UNL     1     108.296 113.321  72.409  1.00  0.00     0.004 A 
ATOM      6  C   UNL     1     107.872 112.367  71.485  1.00  0.00     0.046 A 
ENDROOT
BRANCH   1   7
ATOM      7  C   UNL     1     108.470 111.263  75.603  1.00  0.00     0.164 C 
ATOM      8  O   UNL     1     109.242 113.122  79.614  1.00  0.00    -0.272 OA
ATOM      9  C   UNL     1     109.784 112.934  78.528  1.00  0.00     0.246 C 
ATOM     10  N   UNL     1     111.117 112.538  78.358  1.00  0.00    -0.329 N 
ATOM     11  C   UNL     1     109.099 113.235  77.193  1.00  0.00     0.180 C 
ATOM     12  C   UNL     1     111.740 112.606  77.039  1.00  0.00     0.220 C 
ATOM     13  N   UNL     1     109.480 112.100  76.304  1.00  0.00    -0.316 N 
ATOM     14  C   UNL     1     107.591 113.534  77.340  1.00  0.00     0.073 C 
ATOM     15  C   UNL     1     110.844 111.844  76.090  1.00  0.00     0.243 C 
ATOM     16  C   UNL     1     106.782 112.301  77.205  1.00  0.00    -0.014 A 
ATOM     17  O   UNL     1     111.305 111.141  75.192  1.00  0.00    -0.273 OA
ATOM     18  C   UNL     1     107.206 111.281  76.387  1.00  0.00     0.047 A 
ATOM     19  C   UNL     1     105.543 111.912  77.777  1.00  0.00     0.003 A 
ATOM     20  N   UNL     1     106.283 110.275  76.439  1.00  0.00    -0.356 N 
ATOM     21  C   UNL     1     105.252 110.636  77.280  1.00  0.00     0.046 A 
ATOM     22  C   UNL     1     104.633 112.516  78.669  1.00  0.00     0.010 A 
ATOM     23  C   UNL     1     104.094 109.936  77.636  1.00  0.00     0.026 A 
ATOM     24  C   UNL     1     103.472 111.824  79.031  1.00  0.00     0.001 A 
ATOM     25  C   UNL     1     103.209 110.555  78.522  1.00  0.00     0.002 A 
ATOM     26  H   UNL     1     106.343 109.399  75.937  1.00  0.00     0.166 HD
BRANCH  10  27
ATOM     27  C   UNL     1     111.968 112.277  79.494  1.00  0.00     0.085 C 
ATOM     28  C   UNL     1     111.583 110.956  80.166  1.00  0.00     0.025 C 
ATOM     29  C   UNL     1     113.440 112.279  79.073  1.00  0.00     0.025 C 
ATOM     30  C   UNL     1     112.506 110.633  81.339  1.00  0.00     0.002 C 
ATOM     31  C   UNL     1     114.360 111.953  80.247  1.00  0.00     0.002 C 
ATOM     32  C   UNL     1     113.972 110.638  80.918  1.00  0.00     0.000 C 
ENDBRANCH  10  27
ENDBRANCH   1   7
BRANCH   4  33
ATOM     33  O   UNL     1     107.229 110.121  70.993  1.00  0.00    -0.497 OA
ATOM     34  C   UNL     1     107.195 108.763  71.432  1.00  0.00     0.278 C 
ENDBRANCH   4  33
TORSDOF 3
ENDMDL
MODEL 9
REMARK VINA RESULT:      -9.4      2.410      5.725
REMARK SMILES COc1cccc([C@@H]2c3[nH]c4ccccc4c3C[C@H]3C(=O)N(C4CCCCC4)CC(=O)N23)c1
REMARK SMILES IDX 7 1 33 2 6 3 3 4 5 5 4 6 8 7 21 8 20 9 22 10 19 11 29 12
REMARK SMILES IDX 32 13 18 14 30 15 17 16 31 17 9 18 16 19 10 20 11 21 15 22
REMARK SMILES IDX 12 23 14 24 13 25 23 27 24 28 28 29 25 30 27 31 26 32 2 33
REMARK SMILES IDX 1 34
REMARK H PARENT 10 26
ROOT
ATOM      1  C   UNL     1     107.916 112.456  77.678  1.00  0.00    -0.016 A 
ATOM      2  C   UNL     1     107.302 111.464  76.919  1.00  0.00     0.052 A 
ATOM      3  C   UNL     1     107.350 112.876  78.879  1.00  0.00     0.006 A 
ATOM      4  C   UNL     1     106.112 110.887  77.364  1.00  0.00     0.119 A 
ATOM      5  C   UNL     1     106.161 112.299  79.323  1.00  0.00     0.004 A 
ATOM      6  C   UNL     1     105.542 111.305  78.567  1.00  0.00     0.046 A 
ENDROOT
BRANCH   1   7
ATOM      7  C   UNL     1     109.213 113.084  77.193  1.00  0.00     0.164 C 
ATOM      8  O   UNL     1     113.477 111.993  76.310  1.00  0.00    -0.272 OA
ATOM      9  C   UNL     1     112.696 112.113  77.251  1.00  0.00     0.246 C 
ATOM     10  N   UNL     1     113.012 112.707  78.480  1.00  0.00    -0.329 N 
ATOM     11  C   UNL     1     111.291 111.505  77.250  1.00  0.00     0.180 C 
ATOM     12  C   UNL     1     112.112 112.558  79.620  1.00  0.00     0.220 C 
ATOM     13  N   UNL     1     110.424 112.547  77.871  1.00  0.00    -0.316 N 
ATOM     14  C   UNL     1     110.864 110.972  75.865  1.00  0.00     0.073 C 
ATOM     15  C   UNL     1     110.742 113.005  79.160  1.00  0.00     0.243 C 
ATOM     16  C   UNL     1     110.156 112.011  75.084  1.00  0.00    -0.014 A 
ATOM     17  O   UNL     1     109.989 113.639  79.897  1.00  0.00    -0.273 OA
ATOM     18  C   UNL     1     109.393 112.960  75.722  1.00  0.00     0.047 A 
ATOM     19  C   UNL     1     110.073 112.256  73.688  1.00  0.00     0.003 A 
ATOM     20  N   UNL     1     108.851 113.785  74.778  1.00  0.00    -0.356 N 
ATOM     21  C   UNL     1     109.249 113.375  73.523  1.00  0.00     0.046 A 
ATOM     22  C   UNL     1     110.616 111.639  72.542  1.00  0.00     0.010 A 
ATOM     23  C   UNL     1     108.944 113.906  72.264  1.00  0.00     0.026 A 
ATOM     24  C   UNL     1     110.316 112.163  71.279  1.00  0.00     0.001 A 
ATOM     25  C   UNL     1     109.494 113.278  71.145  1.00  0.00     0.002 A 
ATOM     26  H   UNL     1     108.250 114.575  74.967  1.00  0.00     0.166 HD
BRANCH  10  27
ATOM     27  C   UNL     1     114.316 113.276  78.719  1.00  0.00     0.085 C 
ATOM     28  C   UNL     1     114.204 114.765  79.056  1.00  0.00     0.025 C 
ATOM     29  C   UNL     1     115.041 112.508  79.828  1.00  0.00     0.025 C 
ATOM     30  C   UNL     1     115.569 115.376  79.366  1.00  0.00     0.002 C 
ATOM     31  C   UNL     1     116.403 113.122  80.139  1.00  0.00     0.002 C 
ATOM     32  C   UNL     1     116.290 114.607  80.470  1.00  0.00     0.000 C 
ENDBRANCH  10  27
ENDBRANCH   1   7
BRANCH   4  33
ATOM     33  O   UNL     1     105.507 109.917  76.625  1.00  0.00    -0.497 OA
ATOM     34  C   UNL     1     106.224 109.418  75.497  1.00  0.00     0.278 C 
ENDBRANCH   4  33
TORSDOF 3
ENDMDL
MODEL 10
REMARK VINA RESULT:      -9.1      1.884      6.555
REMARK SMILES COc1cccc([C@@H]2c3[nH]c4ccccc4c3C[C@H]3C(=O)N(C4CCCCC4)CC(=O)N23)c1
REMARK SMILES IDX 7 1 33 2 6 3 3 4 5 5 4 6 8 7 21 8 20 9 22 10 19 11 29 12
REMARK SMILES IDX 32 13 18 14 30 15 17 16 31 17 9 18 16 19 10 20 11 21 15 22
REMARK SMILES IDX 12 23 14 24 13 25 23 27 24 28 28 29 25 30 27 31 26 32 2 33
REMARK SMILES IDX 1 34
REMARK H PARENT 10 26
ROOT
ATOM      1  C   UNL     1     109.444 112.762  78.751  1.00  0.00    -0.016 A 
ATOM      2  C   UNL     1     109.980 111.526  79.103  1.00  0.00     0.052 A 
ATOM      3  C   UNL     1     109.781 113.906  79.469  1.00  0.00     0.006 A 
ATOM      4  C   UNL     1     110.860 111.433  80.182  1.00  0.00     0.119 A 
ATOM      5  C   UNL     1     110.660 113.813  80.548  1.00  0.00     0.004 A 
ATOM      6  C   UNL     1     111.199 112.578  80.905  1.00  0.00     0.046 A 
ENDROOT
BRANCH   1   7
ATOM      7  C   UNL     1     108.487 112.863  77.574  1.00  0.00     0.164 C 
ATOM      8  O   UNL     1     107.034 110.464  74.069  1.00  0.00    -0.272 OA
ATOM      9  C   UNL     1     108.038 111.037  74.485  1.00  0.00     0.246 C 
ATOM     10  N   UNL     1     108.889 111.828  73.701  1.00  0.00    -0.329 N 
ATOM     11  C   UNL     1     108.571 110.855  75.908  1.00  0.00     0.180 C 
ATOM     12  C   UNL     1     110.192 112.237  74.217  1.00  0.00     0.220 C 
ATOM     13  N   UNL     1     108.997 112.219  76.334  1.00  0.00    -0.316 N 
ATOM     14  C   UNL     1     107.585 110.108  76.833  1.00  0.00     0.073 C 
ATOM     15  C   UNL     1     109.948 112.899  75.554  1.00  0.00     0.243 C 
ATOM     16  C   UNL     1     106.693 111.053  77.543  1.00  0.00    -0.014 A 
ATOM     17  O   UNL     1     110.588 113.885  75.913  1.00  0.00    -0.273 OA
ATOM     18  C   UNL     1     107.142 112.307  77.883  1.00  0.00     0.047 A 
ATOM     19  C   UNL     1     105.357 110.931  78.006  1.00  0.00     0.003 A 
ATOM     20  N   UNL     1     106.135 112.966  78.528  1.00  0.00    -0.356 N 
ATOM     21  C   UNL     1     105.030 112.145  78.620  1.00  0.00     0.046 A 
ATOM     22  C   UNL     1     104.387 109.908  77.966  1.00  0.00     0.010 A 
ATOM     23  C   UNL     1     103.777 112.384  79.195  1.00  0.00     0.026 A 
ATOM     24  C   UNL     1     103.131 110.137  78.539  1.00  0.00     0.001 A 
ATOM     25  C   UNL     1     102.833 111.356  79.142  1.00  0.00     0.002 A 
ATOM     26  H   UNL     1     106.187 113.910  78.885  1.00  0.00     0.166 HD
BRANCH  10  27
ATOM     27  C   UNL     1     108.610 112.065  72.306  1.00  0.00     0.085 C 
ATOM     28  C   UNL     1     107.238 112.721  72.131  1.00  0.00     0.025 C 
ATOM     29  C   UNL     1     109.718 112.914  71.675  1.00  0.00     0.025 C 
ATOM     30  C   UNL     1     106.946 113.031  70.664  1.00  0.00     0.002 C 
ATOM     31  C   UNL     1     109.421 113.225  70.210  1.00  0.00     0.002 C 
ATOM     32  C   UNL     1     108.052 113.875  70.038  1.00  0.00     0.000 C 
ENDBRANCH  10  27
ENDBRANCH   1   7
BRANCH   4  33
ATOM     33  O   UNL     1     111.386 110.228  80.531  1.00  0.00    -0.497 OA
ATOM     34  C   UNL     1     112.596 110.242  81.288  1.00  0.00     0.278 C 
ENDBRANCH   4  33
TORSDOF 3
ENDMDL
MODEL 11
REMARK VINA RESULT:      -9.0      2.325      6.858
REMARK SMILES COc1cccc([C@@H]2c3[nH]c4ccccc4c3C[C@H]3C(=O)N(C4CCCCC4)CC(=O)N23)c1
REMARK SMILES IDX 7 1 33 2 6 3 3 4 5 5 4 6 8 7 21 8 20 9 22 10 19 11 29 12
REMARK SMILES IDX 32 13 18 14 30 15 17 16 31 17 9 18 16 19 10 20 11 21 15 22
REMARK SMILES IDX 12 23 14 24 13 25 23 27 24 28 28 29 25 30 27 31 26 32 2 33
REMARK SMILES IDX 1 34
REMARK H PARENT 10 26
ROOT
ATOM      1  C   UNL     1     105.826 111.709  77.871  1.00  0.00    -0.016 A 
ATOM      2  C   UNL     1     105.486 110.969  79.000  1.00  0.00     0.052 A 
ATOM      3  C   UNL     1     104.898 112.567  77.286  1.00  0.00     0.006 A 
ATOM      4  C   UNL     1     104.209 111.086  79.548  1.00  0.00     0.119 A 
ATOM      5  C   UNL     1     103.621 112.684  77.834  1.00  0.00     0.004 A 
ATOM      6  C   UNL     1     103.276 111.944  78.964  1.00  0.00     0.046 A 
ENDROOT
BRANCH   1   7
ATOM      7  C   UNL     1     107.219 111.582  77.275  1.00  0.00     0.164 C 
ATOM      8  O   UNL     1     110.185 113.931  74.860  1.00  0.00    -0.272 OA
ATOM      9  C   UNL     1     109.091 113.381  74.759  1.00  0.00     0.246 C 
ATOM     10  N   UNL     1     108.686 112.604  73.665  1.00  0.00    -0.329 N 
ATOM     11  C   UNL     1     107.961 113.583  75.771  1.00  0.00     0.180 C 
ATOM     12  C   UNL     1     107.285 112.225  73.513  1.00  0.00     0.220 C 
ATOM     13  N   UNL     1     107.357 112.230  75.942  1.00  0.00    -0.316 N 
ATOM     14  C   UNL     1     108.419 114.313  77.052  1.00  0.00     0.073 C 
ATOM     15  C   UNL     1     106.865 111.566  74.807  1.00  0.00     0.243 C 
ATOM     16  C   UNL     1     108.858 113.353  78.091  1.00  0.00    -0.014 A 
ATOM     17  O   UNL     1     106.110 110.594  74.822  1.00  0.00    -0.273 OA
ATOM     18  C   UNL     1     108.277 112.111  78.177  1.00  0.00     0.047 A 
ATOM     19  C   UNL     1     109.828 113.450  79.123  1.00  0.00     0.003 A 
ATOM     20  N   UNL     1     108.854 111.435  79.213  1.00  0.00    -0.356 N 
ATOM     21  C   UNL     1     109.807 112.233  79.812  1.00  0.00     0.046 A 
ATOM     22  C   UNL     1     110.726 114.452  79.544  1.00  0.00     0.010 A 
ATOM     23  C   UNL     1     110.643 111.971  80.903  1.00  0.00     0.026 A 
ATOM     24  C   UNL     1     111.566 114.200  80.635  1.00  0.00     0.001 A 
ATOM     25  C   UNL     1     111.524 112.979  81.301  1.00  0.00     0.002 A 
ATOM     26  H   UNL     1     108.622 110.494  79.500  1.00  0.00     0.166 HD
BRANCH  10  27
ATOM     27  C   UNL     1     109.577 112.354  72.558  1.00  0.00     0.085 C 
ATOM     28  C   UNL     1     110.049 110.898  72.561  1.00  0.00     0.025 C 
ATOM     29  C   UNL     1     108.901 112.718  71.233  1.00  0.00     0.025 C 
ATOM     30  C   UNL     1     110.951 110.596  71.366  1.00  0.00     0.002 C 
ATOM     31  C   UNL     1     109.804 112.413  70.040  1.00  0.00     0.002 C 
ATOM     32  C   UNL     1     110.276 110.962  70.047  1.00  0.00     0.000 C 
ENDBRANCH  10  27
ENDBRANCH   1   7
BRANCH   4  33
ATOM     33  O   UNL     1     103.871 110.364  80.651  1.00  0.00    -0.497 OA
ATOM     34  C   UNL     1     102.800 110.863  81.451  1.00  0.00     0.278 C 
ENDBRANCH   4  33
TORSDOF 3
ENDMDL
MODEL 12
REMARK VINA RESULT:      -8.9      0.723      1.017
REMARK SMILES COc1cccc([C@@H]2c3[nH]c4ccccc4c3C[C@H]3C(=O)N(C4CCCCC4)CC(=O)N23)c1
REMARK SMILES IDX 7 1 33 2 6 3 3 4 5 5 4 6 8 7 21 8 20 9 22 10 19 11 29 12
REMARK SMILES IDX 32 13 18 14 30 15 17 16 31 17 9 18 16 19 10 20 11 21 15 22
REMARK SMILES IDX 12 23 14 24 13 25 23 27 24 28 28 29 25 30 27 31 26 32 2 33
REMARK SMILES IDX 1 34
REMARK H PARENT 10 26
ROOT
ATOM      1  C   UNL     1     107.853 110.494  74.041  1.00  0.00    -0.016 A 
ATOM      2  C   UNL     1     108.405 111.521  73.280  1.00  0.00     0.052 A 
ATOM      3  C   UNL     1     107.131 109.474  73.428  1.00  0.00     0.006 A 
ATOM      4  C   UNL     1     108.233 111.529  71.896  1.00  0.00     0.119 A 
ATOM      5  C   UNL     1     106.958 109.482  72.044  1.00  0.00     0.004 A 
ATOM      6  C   UNL     1     107.508 110.509  71.278  1.00  0.00     0.046 A 
ENDROOT
BRANCH   1   7
ATOM      7  C   UNL     1     108.042 110.485  75.550  1.00  0.00     0.164 C 
ATOM      8  O   UNL     1     108.874 113.285  78.958  1.00  0.00    -0.272 OA
ATOM      9  C   UNL     1     109.412 112.802  77.964  1.00  0.00     0.246 C 
ATOM     10  N   UNL     1     110.729 112.326  77.920  1.00  0.00    -0.329 N 
ATOM     11  C   UNL     1     108.744 112.775  76.587  1.00  0.00     0.180 C 
ATOM     12  C   UNL     1     111.359 112.028  76.638  1.00  0.00     0.220 C 
ATOM     13  N   UNL     1     109.083 111.436  76.025  1.00  0.00    -0.316 N 
ATOM     14  C   UNL     1     107.249 113.159  76.631  1.00  0.00     0.073 C 
ATOM     15  C   UNL     1     110.437 111.082  75.904  1.00  0.00     0.243 C 
ATOM     16  C   UNL     1     106.392 111.964  76.806  1.00  0.00    -0.014 A 
ATOM     17  O   UNL     1     110.872 110.154  75.223  1.00  0.00    -0.273 OA
ATOM     18  C   UNL     1     106.777 110.753  76.285  1.00  0.00     0.047 A 
ATOM     19  C   UNL     1     105.136 111.783  77.442  1.00  0.00     0.003 A 
ATOM     20  N   UNL     1     105.815 109.830  76.580  1.00  0.00    -0.356 N 
ATOM     21  C   UNL     1     104.796 110.435  77.286  1.00  0.00     0.046 A 
ATOM     22  C   UNL     1     104.248 112.631  78.136  1.00  0.00     0.010 A 
ATOM     23  C   UNL     1     103.609 109.894  77.794  1.00  0.00     0.026 A 
ATOM     24  C   UNL     1     103.058 112.100  78.647  1.00  0.00     0.001 A 
ATOM     25  C   UNL     1     102.746 110.754  78.479  1.00  0.00     0.002 A 
ATOM     26  H   UNL     1     105.841 108.853  76.322  1.00  0.00     0.166 HD
BRANCH  10  27
ATOM     27  C   UNL     1     111.564 112.334  79.097  1.00  0.00     0.085 C 
ATOM     28  C   UNL     1     111.067 113.372  80.107  1.00  0.00     0.025 C 
ATOM     29  C   UNL     1     111.625 110.937  79.721  1.00  0.00     0.025 C 
ATOM     30  C   UNL     1     111.905 113.360  81.384  1.00  0.00     0.002 C 
ATOM     31  C   UNL     1     112.460 110.928  80.999  1.00  0.00     0.002 C 
ATOM     32  C   UNL     1     111.966 111.966  82.001  1.00  0.00     0.000 C 
ENDBRANCH  10  27
ENDBRANCH   1   7
BRANCH   4  33
ATOM     33  O   UNL     1     108.769 112.531  71.148  1.00  0.00    -0.497 OA
ATOM     34  C   UNL     1     109.000 113.778  71.803  1.00  0.00     0.278 C 
ENDBRANCH   4  33
TORSDOF 3
ENDMDL
MODEL 13
REMARK VINA RESULT:      -8.6      2.182      7.143
REMARK SMILES COc1cccc([C@@H]2c3[nH]c4ccccc4c3C[C@H]3C(=O)N(C4CCCCC4)CC(=O)N23)c1
REMARK SMILES IDX 7 1 33 2 6 3 3 4 5 5 4 6 8 7 21 8 20 9 22 10 19 11 29 12
REMARK SMILES IDX 32 13 18 14 30 15 17 16 31 17 9 18 16 19 10 20 11 21 15 22
REMARK SMILES IDX 12 23 14 24 13 25 23 27 24 28 28 29 25 30 27 31 26 32 2 33
REMARK SMILES IDX 1 34
REMARK H PARENT 10 26
ROOT
ATOM      1  C   UNL     1     111.304 112.302  77.620  1.00  0.00    -0.016 A 
ATOM      2  C   UNL     1     111.305 113.629  78.041  1.00  0.00     0.052 A 
ATOM      3  C   UNL     1     112.457 111.530  77.724  1.00  0.00     0.006 A 
ATOM      4  C   UNL     1     112.468 114.188  78.570  1.00  0.00     0.119 A 
ATOM      5  C   UNL     1     113.620 112.089  78.253  1.00  0.00     0.004 A 
ATOM      6  C   UNL     1     113.626 113.417  78.676  1.00  0.00     0.046 A 
ENDROOT
BRANCH   1   7
ATOM      7  C   UNL     1     110.035 111.692  77.044  1.00  0.00     0.164 C 
ATOM      8  O   UNL     1     105.981 112.897  75.541  1.00  0.00    -0.272 OA
ATOM      9  C   UNL     1     106.637 112.837  76.578  1.00  0.00     0.246 C 
ATOM     10  N   UNL     1     106.143 112.392  77.812  1.00  0.00    -0.329 N 
ATOM     11  C   UNL     1     108.067 113.370  76.690  1.00  0.00     0.180 C 
ATOM     12  C   UNL     1     106.911 112.614  79.033  1.00  0.00     0.220 C 
ATOM     13  N   UNL     1     108.789 112.357  77.512  1.00  0.00    -0.316 N 
ATOM     14  C   UNL     1     108.686 113.734  75.323  1.00  0.00     0.073 C 
ATOM     15  C   UNL     1     108.295 112.054  78.791  1.00  0.00     0.243 C 
ATOM     16  C   UNL     1     109.415 112.584  74.740  1.00  0.00    -0.014 A 
ATOM     17  O   UNL     1     108.916 111.463  79.673  1.00  0.00    -0.273 OA
ATOM     18  C   UNL     1     110.037 111.671  75.556  1.00  0.00     0.047 A 
ATOM     19  C   UNL     1     109.644 112.191  73.395  1.00  0.00     0.003 A 
ATOM     20  N   UNL     1     110.633 110.726  74.772  1.00  0.00    -0.356 N 
ATOM     21  C   UNL     1     110.411 111.021  73.443  1.00  0.00     0.046 A 
ATOM     22  C   UNL     1     109.279 112.711  72.136  1.00  0.00     0.010 A 
ATOM     23  C   UNL     1     110.828 110.346  72.289  1.00  0.00     0.026 A 
ATOM     24  C   UNL     1     109.691 112.044  70.977  1.00  0.00     0.001 A 
ATOM     25  C   UNL     1     110.452 110.881  71.055  1.00  0.00     0.002 A 
ATOM     26  H   UNL     1     111.158 109.931  75.109  1.00  0.00     0.166 HD
BRANCH  10  27
ATOM     27  C   UNL     1     104.787 111.917  77.944  1.00  0.00     0.085 C 
ATOM     28  C   UNL     1     104.718 110.404  77.720  1.00  0.00     0.025 C 
ATOM     29  C   UNL     1     104.215 112.303  79.311  1.00  0.00     0.025 C 
ATOM     30  C   UNL     1     103.300 109.871  77.908  1.00  0.00     0.002 C 
ATOM     31  C   UNL     1     102.798 111.766  79.498  1.00  0.00     0.002 C 
ATOM     32  C   UNL     1     102.731 110.259  79.270  1.00  0.00     0.000 C 
ENDBRANCH  10  27
ENDBRANCH   1   7
BRANCH   4  33
ATOM     33  O   UNL     1     112.474 115.485  78.983  1.00  0.00    -0.497 OA
ATOM     34  C   UNL     1     111.668 116.404  78.247  1.00  0.00     0.278 C 
ENDBRANCH   4  33
TORSDOF 3
ENDMDL
MODEL 14
REMARK VINA RESULT:      -8.3      2.216      7.355
REMARK SMILES COc1cccc([C@@H]2c3[nH]c4ccccc4c3C[C@H]3C(=O)N(C4CCCCC4)CC(=O)N23)c1
REMARK SMILES IDX 7 1 33 2 6 3 3 4 5 5 4 6 8 7 21 8 20 9 22 10 19 11 29 12
REMARK SMILES IDX 32 13 18 14 30 15 17 16 31 17 9 18 16 19 10 20 11 21 15 22
REMARK SMILES IDX 12 23 14 24 13 25 23 27 24 28 28 29 25 30 27 31 26 32 2 33
REMARK SMILES IDX 1 34
REMARK H PARENT 10 26
ROOT
ATOM      1  C   UNL     1     111.281 112.723  77.747  1.00  0.00    -0.016 A 
ATOM      2  C   UNL     1     112.502 112.074  77.911  1.00  0.00     0.052 A 
ATOM      3  C   UNL     1     111.146 114.065  78.093  1.00  0.00     0.006 A 
ATOM      4  C   UNL     1     113.596 112.771  78.424  1.00  0.00     0.119 A 
ATOM      5  C   UNL     1     112.239 114.762  78.607  1.00  0.00     0.004 A 
ATOM      6  C   UNL     1     113.464 114.116  78.772  1.00  0.00     0.046 A 
ENDROOT
BRANCH   1   7
ATOM      7  C   UNL     1     110.090 111.963  77.186  1.00  0.00     0.164 C 
ATOM      8  O   UNL     1     106.054 112.697  75.365  1.00  0.00    -0.272 OA
ATOM      9  C   UNL     1     106.654 112.801  76.432  1.00  0.00     0.246 C 
ATOM     10  N   UNL     1     106.124 112.463  77.684  1.00  0.00    -0.329 N 
ATOM     11  C   UNL     1     108.038 113.446  76.549  1.00  0.00     0.180 C 
ATOM     12  C   UNL     1     106.807 112.875  78.906  1.00  0.00     0.220 C 
ATOM     13  N   UNL     1     108.779 112.585  77.515  1.00  0.00    -0.316 N 
ATOM     14  C   UNL     1     108.706 113.697  75.179  1.00  0.00     0.073 C 
ATOM     15  C   UNL     1     108.235 112.392  78.796  1.00  0.00     0.243 C 
ATOM     16  C   UNL     1     109.540 112.545  74.768  1.00  0.00    -0.014 A 
ATOM     17  O   UNL     1     108.845 111.950  79.769  1.00  0.00    -0.273 OA
ATOM     18  C   UNL     1     110.175 111.776  75.713  1.00  0.00     0.047 A 
ATOM     19  C   UNL     1     109.869 112.020  73.490  1.00  0.00     0.003 A 
ATOM     20  N   UNL     1     110.874 110.794  75.072  1.00  0.00    -0.356 N 
ATOM     21  C   UNL     1     110.707 110.921  73.709  1.00  0.00     0.046 A 
ATOM     22  C   UNL     1     109.539 112.368  72.164  1.00  0.00     0.010 A 
ATOM     23  C   UNL     1     111.230 110.154  72.662  1.00  0.00     0.026 A 
ATOM     24  C   UNL     1     110.057 111.607  71.110  1.00  0.00     0.001 A 
ATOM     25  C   UNL     1     110.888 110.518  71.358  1.00  0.00     0.002 A 
ATOM     26  H   UNL     1     111.431 110.081  75.523  1.00  0.00     0.166 HD
BRANCH  10  27
ATOM     27  C   UNL     1     104.797 111.910  77.806  1.00  0.00     0.085 C 
ATOM     28  C   UNL     1     104.834 110.383  77.700  1.00  0.00     0.025 C 
ATOM     29  C   UNL     1     104.146 112.361  79.117  1.00  0.00     0.025 C 
ATOM     30  C   UNL     1     103.446 109.772  77.881  1.00  0.00     0.002 C 
ATOM     31  C   UNL     1     102.760 111.747  79.296  1.00  0.00     0.002 C 
ATOM     32  C   UNL     1     102.799 110.226  79.186  1.00  0.00     0.000 C 
ENDBRANCH  10  27
ENDBRANCH   1   7
BRANCH   4  33
ATOM     33  O   UNL     1     114.791 112.141  78.586  1.00  0.00    -0.497 OA
ATOM     34  C   UNL     1     115.899 112.649  77.844  1.00  0.00     0.278 C 
ENDBRANCH   4  33
TORSDOF 3
ENDMDL
MODEL 15
REMARK VINA RESULT:      -8.0      2.568      6.670
REMARK SMILES COc1cccc([C@@H]2c3[nH]c4ccccc4c3C[C@H]3C(=O)N(C4CCCCC4)CC(=O)N23)c1
REMARK SMILES IDX 7 1 33 2 6 3 3 4 5 5 4 6 8 7 21 8 20 9 22 10 19 11 29 12
REMARK SMILES IDX 32 13 18 14 30 15 17 16 31 17 9 18 16 19 10 20 11 21 15 22
REMARK SMILES IDX 12 23 14 24 13 25 23 27 24 28 28 29 25 30 27 31 26 32 2 33
REMARK SMILES IDX 1 34
REMARK H PARENT 10 26
ROOT
ATOM      1  C   UNL     1     105.651 112.033  77.927  1.00  0.00    -0.016 A 
ATOM      2  C   UNL     1     105.262 111.768  79.237  1.00  0.00     0.052 A 
ATOM      3  C   UNL     1     104.743 112.565  77.017  1.00  0.00     0.006 A 
ATOM      4  C   UNL     1     103.953 112.037  79.640  1.00  0.00     0.119 A 
ATOM      5  C   UNL     1     103.435 112.833  77.419  1.00  0.00     0.004 A 
ATOM      6  C   UNL     1     103.040 112.570  78.730  1.00  0.00     0.046 A 
ENDROOT
BRANCH   1   7
ATOM      7  C   UNL     1     107.078 111.741  77.489  1.00  0.00     0.164 C 
ATOM      8  O   UNL     1     110.015 112.845  74.280  1.00  0.00    -0.272 OA
ATOM      9  C   UNL     1     108.963 112.232  74.443  1.00  0.00     0.246 C 
ATOM     10  N   UNL     1     108.662 110.993  73.862  1.00  0.00    -0.329 N 
ATOM     11  C   UNL     1     107.773 112.811  75.212  1.00  0.00     0.180 C 
ATOM     12  C   UNL     1     107.295 110.480  73.893  1.00  0.00     0.220 C 
ATOM     13  N   UNL     1     107.244 111.669  76.012  1.00  0.00    -0.316 N 
ATOM     14  C   UNL     1     108.120 114.104  75.980  1.00  0.00     0.073 C 
ATOM     15  C   UNL     1     106.851 110.501  75.338  1.00  0.00     0.243 C 
ATOM     16  C   UNL     1     108.563 113.807  77.362  1.00  0.00    -0.014 A 
ATOM     17  O   UNL     1     106.157 109.604  75.814  1.00  0.00    -0.273 OA
ATOM     18  C   UNL     1     108.054 112.721  78.034  1.00  0.00     0.047 A 
ATOM     19  C   UNL     1     109.471 114.468  78.229  1.00  0.00     0.003 A 
ATOM     20  N   UNL     1     108.619 112.680  79.277  1.00  0.00    -0.356 N 
ATOM     21  C   UNL     1     109.489 113.740  79.425  1.00  0.00     0.046 A 
ATOM     22  C   UNL     1     110.284 115.615  78.122  1.00  0.00     0.010 A 
ATOM     23  C   UNL     1     110.283 114.107  80.517  1.00  0.00     0.026 A 
ATOM     24  C   UNL     1     111.082 115.990  79.209  1.00  0.00     0.001 A 
ATOM     25  C   UNL     1     111.080 115.246  80.386  1.00  0.00     0.002 A 
ATOM     26  H   UNL     1     108.430 111.982  79.983  1.00  0.00     0.166 HD
BRANCH  10  27
ATOM     27  C   UNL     1     109.621 110.307  73.031  1.00  0.00     0.085 C 
ATOM     28  C   UNL     1     109.761 111.004  71.675  1.00  0.00     0.025 C 
ATOM     29  C   UNL     1     110.972 110.203  73.745  1.00  0.00     0.025 C 
ATOM     30  C   UNL     1     110.812 110.326  70.799  1.00  0.00     0.002 C 
ATOM     31  C   UNL     1     112.021 109.527  72.866  1.00  0.00     0.002 C 
ATOM     32  C   UNL     1     112.156 110.221  71.514  1.00  0.00     0.000 C 
ENDBRANCH  10  27
ENDBRANCH   1   7
BRANCH   4  33
ATOM     33  O   UNL     1     103.567 111.779  80.919  1.00  0.00    -0.497 OA
ATOM     34  C   UNL     1     103.006 110.494  81.182  1.00  0.00     0.278 C 
ENDBRANCH   4  33
TORSDOF 3
ENDMDL
