MODEL 1
REMARK VINA RESULT:     -11.2      0.000      0.000
REMARK SMILES Cc1ccc(-c2ccc(N3CCC(C(=O)NCc4cc(F)cc(F)c4)CC3)nn2)c(C)c1
REMARK SMILES IDX 10 1 13 2 12 3 26 4 11 5 27 6 14 7 16 8 15 9 17 11 18 12
REMARK SMILES IDX 20 13 19 14 22 15 23 16 25 17 21 18 24 19 9 20 28 21 8 22
REMARK SMILES IDX 29 23 7 24 6 25 5 26 30 27 4 28 32 29 3 30 2 31 31 32 1 33
REMARK H PARENT 16 10
ROOT
ATOM      1  N   UNL     1     111.072 114.178  78.035  1.00  0.00    -0.355 N 
ATOM      2  C   UNL     1     108.371 114.116  76.975  1.00  0.00     0.082 C 
ATOM      3  C   UNL     1     108.819 115.168  77.987  1.00  0.00     0.035 C 
ATOM      4  C   UNL     1     109.557 113.557  76.192  1.00  0.00     0.035 C 
ATOM      5  C   UNL     1     109.977 114.692  78.864  1.00  0.00     0.119 C 
ATOM      6  C   UNL     1     110.722 113.121  77.082  1.00  0.00     0.119 C 
ENDROOT
BRANCH   2   7
ATOM      7  C   UNL     1     107.599 113.024  77.656  1.00  0.00     0.223 C 
ATOM      8  N   UNL     1     106.681 112.424  76.811  1.00  0.00    -0.352 N 
ATOM      9  O   UNL     1     107.805 112.717  78.828  1.00  0.00    -0.275 OA
ATOM     10  H   UNL     1     106.550 112.786  75.871  1.00  0.00     0.163 HD
BRANCH   8  11
ATOM     11  C   UNL     1     105.829 111.330  77.217  1.00  0.00     0.151 C 
BRANCH  11  12
ATOM     12  C   UNL     1     104.670 111.799  78.049  1.00  0.00    -0.023 A 
ATOM     13  C   UNL     1     103.374 111.683  80.085  1.00  0.00     0.126 A 
ATOM     14  C   UNL     1     104.450 111.248  79.311  1.00  0.00     0.045 A 
ATOM     15  C   UNL     1     102.517 112.670  79.595  1.00  0.00     0.078 A 
ATOM     16  C   UNL     1     102.737 113.222  78.332  1.00  0.00     0.126 A 
ATOM     17  C   UNL     1     103.814 112.786  77.559  1.00  0.00     0.045 A 
ATOM     18  F   UNL     1     103.162 111.155  81.297  1.00  0.00    -0.207 F 
ATOM     19  F   UNL     1     101.916 114.169  77.863  1.00  0.00    -0.207 F 
ENDBRANCH  11  12
ENDBRANCH   8  11
ENDBRANCH   2   7
BRANCH   1  20
ATOM     20  C   UNL     1     112.364 114.221  78.573  1.00  0.00     0.151 A 
ATOM     21  N   UNL     1     112.815 113.168  79.286  1.00  0.00    -0.132 NA
ATOM     22  C   UNL     1     113.121 115.352  78.344  1.00  0.00     0.051 A 
ATOM     23  N   UNL     1     114.070 113.210  79.810  1.00  0.00    -0.148 NA
ATOM     24  C   UNL     1     114.398 115.395  78.876  1.00  0.00     0.035 A 
ATOM     25  C   UNL     1     114.833 114.304  79.602  1.00  0.00     0.093 A 
BRANCH  25  26
ATOM     26  C   UNL     1     116.148 114.263  80.191  1.00  0.00     0.005 A 
ATOM     27  C   UNL     1     117.151 113.455  79.655  1.00  0.00    -0.041 A 
ATOM     28  C   UNL     1     116.409 115.047  81.314  1.00  0.00     0.011 A 
ATOM     29  C   UNL     1     118.417 113.433  80.243  1.00  0.00     0.007 A 
ATOM     30  C   UNL     1     117.674 115.025  81.903  1.00  0.00     0.004 A 
ATOM     31  C   UNL     1     118.677 114.217  81.367  1.00  0.00    -0.051 A 
ATOM     32  C   UNL     1     116.908 112.601  78.452  1.00  0.00     0.045 C 
ATOM     33  C   UNL     1     120.030 114.193  81.996  1.00  0.00     0.044 C 
ENDBRANCH  25  26
ENDBRANCH   1  20
TORSDOF 5
ENDMDL
MODEL 2
REMARK VINA RESULT:     -11.2      0.027      1.460
REMARK SMILES Cc1ccc(-c2ccc(N3CCC(C(=O)NCc4cc(F)cc(F)c4)CC3)nn2)c(C)c1
REMARK SMILES IDX 10 1 13 2 12 3 26 4 11 5 27 6 14 7 16 8 15 9 17 11 18 12
REMARK SMILES IDX 20 13 19 14 22 15 23 16 25 17 21 18 24 19 9 20 28 21 8 22
REMARK SMILES IDX 29 23 7 24 6 25 5 26 30 27 4 28 32 29 3 30 2 31 31 32 1 33
REMARK H PARENT 16 10
ROOT
ATOM      1  N   UNL     1     111.081 114.168  78.042  1.00  0.00    -0.355 N 
ATOM      2  C   UNL     1     108.376 114.107  76.988  1.00  0.00     0.082 C 
ATOM      3  C   UNL     1     108.830 115.165  77.991  1.00  0.00     0.035 C 
ATOM      4  C   UNL     1     109.559 113.538  76.208  1.00  0.00     0.035 C 
ATOM      5  C   UNL     1     109.989 114.693  78.869  1.00  0.00     0.119 C 
ATOM      6  C   UNL     1     110.725 113.105  77.098  1.00  0.00     0.119 C 
ENDROOT
BRANCH   2   7
ATOM      7  C   UNL     1     107.603 113.024  77.680  1.00  0.00     0.223 C 
ATOM      8  N   UNL     1     106.696 112.406  76.836  1.00  0.00    -0.352 N 
ATOM      9  O   UNL     1     107.799 112.737  78.858  1.00  0.00    -0.275 OA
ATOM     10  H   UNL     1     106.572 112.751  75.889  1.00  0.00     0.163 HD
BRANCH   8  11
ATOM     11  C   UNL     1     105.843 111.315  77.252  1.00  0.00     0.151 C 
BRANCH  11  12
ATOM     12  C   UNL     1     104.672 111.794  78.060  1.00  0.00    -0.023 A 
ATOM     13  C   UNL     1     102.740 113.224  78.300  1.00  0.00     0.126 A 
ATOM     14  C   UNL     1     103.829 112.779  77.549  1.00  0.00     0.045 A 
ATOM     15  C   UNL     1     102.497 112.684  79.563  1.00  0.00     0.078 A 
ATOM     16  C   UNL     1     103.341 111.698  80.075  1.00  0.00     0.126 A 
ATOM     17  C   UNL     1     104.430 111.253  79.323  1.00  0.00     0.045 A 
ATOM     18  F   UNL     1     101.929 114.170  77.809  1.00  0.00    -0.207 F 
ATOM     19  F   UNL     1     103.108 111.179  81.287  1.00  0.00    -0.207 F 
ENDBRANCH  11  12
ENDBRANCH   8  11
ENDBRANCH   2   7
BRANCH   1  20
ATOM     20  C   UNL     1     112.374 114.211  78.577  1.00  0.00     0.151 A 
ATOM     21  N   UNL     1     112.826 113.158  79.289  1.00  0.00    -0.132 NA
ATOM     22  C   UNL     1     113.130 115.343  78.348  1.00  0.00     0.051 A 
ATOM     23  N   UNL     1     114.082 113.200  79.809  1.00  0.00    -0.148 NA
ATOM     24  C   UNL     1     114.408 115.386  78.876  1.00  0.00     0.035 A 
ATOM     25  C   UNL     1     114.845 114.294  79.600  1.00  0.00     0.093 A 
BRANCH  25  26
ATOM     26  C   UNL     1     116.161 114.253  80.186  1.00  0.00     0.005 A 
ATOM     27  C   UNL     1     117.164 113.446  79.648  1.00  0.00    -0.041 A 
ATOM     28  C   UNL     1     116.425 115.037  81.310  1.00  0.00     0.011 A 
ATOM     29  C   UNL     1     118.430 113.424  80.233  1.00  0.00     0.007 A 
ATOM     30  C   UNL     1     117.691 115.014  81.895  1.00  0.00     0.004 A 
ATOM     31  C   UNL     1     118.693 114.207  81.356  1.00  0.00    -0.051 A 
ATOM     32  C   UNL     1     116.918 112.593  78.444  1.00  0.00     0.045 C 
ATOM     33  C   UNL     1     120.047 114.183  81.982  1.00  0.00     0.044 C 
ENDBRANCH  25  26
ENDBRANCH   1  20
TORSDOF 5
ENDMDL
MODEL 3
REMARK VINA RESULT:     -11.1      3.412      4.315
REMARK SMILES Cc1ccc(-c2ccc(N3CCC(C(=O)NCc4cc(F)cc(F)c4)CC3)nn2)c(C)c1
REMARK SMILES IDX 10 1 13 2 12 3 26 4 11 5 27 6 14 7 16 8 15 9 17 11 18 12
REMARK SMILES IDX 20 13 19 14 22 15 23 16 25 17 21 18 24 19 9 20 28 21 8 22
REMARK SMILES IDX 29 23 7 24 6 25 5 26 30 27 4 28 32 29 3 30 2 31 31 32 1 33
REMARK H PARENT 16 10
ROOT
ATOM      1  N   UNL     1     111.871 114.408  78.649  1.00  0.00    -0.355 N 
ATOM      2  C   UNL     1     109.132 114.517  77.692  1.00  0.00     0.082 C 
ATOM      3  C   UNL     1     109.779 113.211  78.145  1.00  0.00     0.035 C 
ATOM      4  C   UNL     1     109.811 115.725  78.335  1.00  0.00     0.035 C 
ATOM      5  C   UNL     1     111.302 113.221  78.001  1.00  0.00     0.119 C 
ATOM      6  C   UNL     1     111.336 115.702  78.216  1.00  0.00     0.119 C 
ENDROOT
BRANCH   2   7
ATOM      7  C   UNL     1     109.137 114.617  76.195  1.00  0.00     0.223 C 
ATOM      8  N   UNL     1     108.892 113.397  75.588  1.00  0.00    -0.352 N 
ATOM      9  O   UNL     1     109.322 115.685  75.616  1.00  0.00    -0.275 OA
ATOM     10  H   UNL     1     108.802 112.560  76.155  1.00  0.00     0.163 HD
BRANCH   8  11
ATOM     11  C   UNL     1     108.822 113.227  74.154  1.00  0.00     0.151 C 
BRANCH  11  12
ATOM     12  C   UNL     1     108.158 111.935  73.773  1.00  0.00    -0.023 A 
ATOM     13  C   UNL     1     106.924 109.955  74.396  1.00  0.00     0.126 A 
ATOM     14  C   UNL     1     107.541 111.155  74.749  1.00  0.00     0.045 A 
ATOM     15  C   UNL     1     106.927 109.534  73.065  1.00  0.00     0.078 A 
ATOM     16  C   UNL     1     107.545 110.315  72.088  1.00  0.00     0.126 A 
ATOM     17  C   UNL     1     108.162 111.516  72.442  1.00  0.00     0.045 A 
ATOM     18  F   UNL     1     106.329 109.205  75.333  1.00  0.00    -0.207 F 
ATOM     19  F   UNL     1     107.548 109.912  70.811  1.00  0.00    -0.207 F 
ENDBRANCH  11  12
ENDBRANCH   8  11
ENDBRANCH   2   7
BRANCH   1  20
ATOM     20  C   UNL     1     113.194 114.326  79.101  1.00  0.00     0.151 A 
ATOM     21  N   UNL     1     113.570 113.263  79.843  1.00  0.00    -0.132 NA
ATOM     22  C   UNL     1     114.057 115.347  78.761  1.00  0.00     0.051 A 
ATOM     23  N   UNL     1     114.855 113.183  80.282  1.00  0.00    -0.148 NA
ATOM     24  C   UNL     1     115.364 115.266  79.207  1.00  0.00     0.035 A 
ATOM     25  C   UNL     1     115.721 114.168  79.964  1.00  0.00     0.093 A 
BRANCH  25  26
ATOM     26  C   UNL     1     117.061 114.001  80.470  1.00  0.00     0.005 A 
ATOM     27  C   UNL     1     117.517 114.747  81.557  1.00  0.00    -0.041 A 
ATOM     28  C   UNL     1     117.905 113.078  79.854  1.00  0.00     0.011 A 
ATOM     29  C   UNL     1     118.818 114.568  82.029  1.00  0.00     0.007 A 
ATOM     30  C   UNL     1     119.206 112.898  80.325  1.00  0.00     0.004 A 
ATOM     31  C   UNL     1     119.662 113.644  81.412  1.00  0.00    -0.051 A 
ATOM     32  C   UNL     1     116.641 115.747  82.242  1.00  0.00     0.045 C 
ATOM     33  C   UNL     1     121.053 113.452  81.916  1.00  0.00     0.044 C 
ENDBRANCH  25  26
ENDBRANCH   1  20
TORSDOF 5
ENDMDL
MODEL 4
REMARK VINA RESULT:     -11.1      3.930      5.239
REMARK SMILES Cc1ccc(-c2ccc(N3CCC(C(=O)NCc4cc(F)cc(F)c4)CC3)nn2)c(C)c1
REMARK SMILES IDX 10 1 13 2 12 3 26 4 11 5 27 6 14 7 16 8 15 9 17 11 18 12
REMARK SMILES IDX 20 13 19 14 22 15 23 16 25 17 21 18 24 19 9 20 28 21 8 22
REMARK SMILES IDX 29 23 7 24 6 25 5 26 30 27 4 28 32 29 3 30 2 31 31 32 1 33
REMARK H PARENT 16 10
ROOT
ATOM      1  N   UNL     1     111.562 114.357  78.729  1.00  0.00    -0.355 N 
ATOM      2  C   UNL     1     108.783 114.429  77.894  1.00  0.00     0.082 C 
ATOM      3  C   UNL     1     109.372 113.235  78.643  1.00  0.00     0.035 C 
ATOM      4  C   UNL     1     109.575 115.705  78.172  1.00  0.00     0.035 C 
ATOM      5  C   UNL     1     110.880 113.092  78.437  1.00  0.00     0.119 C 
ATOM      6  C   UNL     1     111.085 115.534  77.998  1.00  0.00     0.119 C 
ENDROOT
BRANCH   2   7
ATOM      7  C   UNL     1     108.703 114.141  76.424  1.00  0.00     0.223 C 
ATOM      8  N   UNL     1     108.145 112.902  76.161  1.00  0.00    -0.352 N 
ATOM      9  O   UNL     1     109.083 114.951  75.582  1.00  0.00    -0.275 OA
ATOM     10  H   UNL     1     107.909 112.282  76.930  1.00  0.00     0.163 HD
BRANCH   8  11
ATOM     11  C   UNL     1     107.936 112.395  74.824  1.00  0.00     0.151 C 
BRANCH  11  12
ATOM     12  C   UNL     1     109.159 111.714  74.282  1.00  0.00    -0.023 A 
ATOM     13  C   UNL     1     110.450 110.915  72.403  1.00  0.00     0.126 A 
ATOM     14  C   UNL     1     109.313 111.548  72.907  1.00  0.00     0.045 A 
ATOM     15  C   UNL     1     111.432 110.447  73.277  1.00  0.00     0.078 A 
ATOM     16  C   UNL     1     111.278 110.613  74.653  1.00  0.00     0.126 A 
ATOM     17  C   UNL     1     110.141 111.246  75.156  1.00  0.00     0.045 A 
ATOM     18  F   UNL     1     110.599 110.756  71.081  1.00  0.00    -0.207 F 
ATOM     19  F   UNL     1     112.221 110.165  75.492  1.00  0.00    -0.207 F 
ENDBRANCH  11  12
ENDBRANCH   8  11
ENDBRANCH   2   7
BRANCH   1  20
ATOM     20  C   UNL     1     112.902 114.291  79.130  1.00  0.00     0.151 A 
ATOM     21  N   UNL     1     113.320 113.232  79.854  1.00  0.00    -0.132 NA
ATOM     22  C   UNL     1     113.738 115.325  78.762  1.00  0.00     0.051 A 
ATOM     23  N   UNL     1     114.622 113.168  80.244  1.00  0.00    -0.148 NA
ATOM     24  C   UNL     1     115.062 115.260  79.158  1.00  0.00     0.035 A 
ATOM     25  C   UNL     1     115.463 114.165  79.897  1.00  0.00     0.093 A 
BRANCH  25  26
ATOM     26  C   UNL     1     116.822 114.015  80.352  1.00  0.00     0.005 A 
ATOM     27  C   UNL     1     117.316 114.779  81.410  1.00  0.00    -0.041 A 
ATOM     28  C   UNL     1     117.649 113.089  79.715  1.00  0.00     0.011 A 
ATOM     29  C   UNL     1     118.636 114.615  81.832  1.00  0.00     0.007 A 
ATOM     30  C   UNL     1     118.968 112.926  80.136  1.00  0.00     0.004 A 
ATOM     31  C   UNL     1     119.462 113.689  81.194  1.00  0.00    -0.051 A 
ATOM     32  C   UNL     1     116.460 115.781  82.116  1.00  0.00     0.045 C 
ATOM     33  C   UNL     1     120.873 113.514  81.645  1.00  0.00     0.044 C 
ENDBRANCH  25  26
ENDBRANCH   1  20
TORSDOF 5
ENDMDL
MODEL 5
REMARK VINA RESULT:     -11.1      3.930      5.064
REMARK SMILES Cc1ccc(-c2ccc(N3CCC(C(=O)NCc4cc(F)cc(F)c4)CC3)nn2)c(C)c1
REMARK SMILES IDX 10 1 13 2 12 3 26 4 11 5 27 6 14 7 16 8 15 9 17 11 18 12
REMARK SMILES IDX 20 13 19 14 22 15 23 16 25 17 21 18 24 19 9 20 28 21 8 22
REMARK SMILES IDX 29 23 7 24 6 25 5 26 30 27 4 28 32 29 3 30 2 31 31 32 1 33
REMARK H PARENT 16 10
ROOT
ATOM      1  N   UNL     1     111.565 114.367  78.731  1.00  0.00    -0.355 N 
ATOM      2  C   UNL     1     108.782 114.431  77.908  1.00  0.00     0.082 C 
ATOM      3  C   UNL     1     109.380 113.236  78.647  1.00  0.00     0.035 C 
ATOM      4  C   UNL     1     109.570 115.709  78.189  1.00  0.00     0.035 C 
ATOM      5  C   UNL     1     110.888 113.100  78.434  1.00  0.00     0.119 C 
ATOM      6  C   UNL     1     111.080 115.546  78.009  1.00  0.00     0.119 C 
ENDROOT
BRANCH   2   7
ATOM      7  C   UNL     1     108.697 114.151  76.436  1.00  0.00     0.223 C 
ATOM      8  N   UNL     1     108.149 112.908  76.169  1.00  0.00    -0.352 N 
ATOM      9  O   UNL     1     109.066 114.970  75.597  1.00  0.00    -0.275 OA
ATOM     10  H   UNL     1     107.923 112.282  76.935  1.00  0.00     0.163 HD
BRANCH   8  11
ATOM     11  C   UNL     1     107.937 112.408  74.829  1.00  0.00     0.151 C 
BRANCH  11  12
ATOM     12  C   UNL     1     109.159 111.724  74.285  1.00  0.00    -0.023 A 
ATOM     13  C   UNL     1     111.279 110.627  74.651  1.00  0.00     0.126 A 
ATOM     14  C   UNL     1     110.145 111.263  75.156  1.00  0.00     0.045 A 
ATOM     15  C   UNL     1     111.428 110.456  73.274  1.00  0.00     0.078 A 
ATOM     16  C   UNL     1     110.441 110.918  72.403  1.00  0.00     0.126 A 
ATOM     17  C   UNL     1     109.306 111.554  72.908  1.00  0.00     0.045 A 
ATOM     18  F   UNL     1     112.227 110.182  75.486  1.00  0.00    -0.207 F 
ATOM     19  F   UNL     1     110.583 110.754  71.081  1.00  0.00    -0.207 F 
ENDBRANCH  11  12
ENDBRANCH   8  11
ENDBRANCH   2   7
BRANCH   1  20
ATOM     20  C   UNL     1     112.907 114.304  79.126  1.00  0.00     0.151 A 
ATOM     21  N   UNL     1     113.334 113.241  79.838  1.00  0.00    -0.132 NA
ATOM     22  C   UNL     1     113.736 115.346  78.763  1.00  0.00     0.051 A 
ATOM     23  N   UNL     1     114.637 113.180  80.223  1.00  0.00    -0.148 NA
ATOM     24  C   UNL     1     115.062 115.284  79.153  1.00  0.00     0.035 A 
ATOM     25  C   UNL     1     115.471 114.185  79.882  1.00  0.00     0.093 A 
BRANCH  25  26
ATOM     26  C   UNL     1     116.834 114.038  80.329  1.00  0.00     0.005 A 
ATOM     27  C   UNL     1     117.324 114.785  81.400  1.00  0.00    -0.041 A 
ATOM     28  C   UNL     1     117.666 113.131  79.673  1.00  0.00     0.011 A 
ATOM     29  C   UNL     1     118.646 114.625  81.815  1.00  0.00     0.007 A 
ATOM     30  C   UNL     1     118.988 112.971  80.087  1.00  0.00     0.004 A 
ATOM     31  C   UNL     1     119.478 113.719  81.158  1.00  0.00    -0.051 A 
ATOM     32  C   UNL     1     116.461 115.767  82.128  1.00  0.00     0.045 C 
ATOM     33  C   UNL     1     120.892 113.547  81.601  1.00  0.00     0.044 C 
ENDBRANCH  25  26
ENDBRANCH   1  20
TORSDOF 5
ENDMDL
MODEL 6
REMARK VINA RESULT:     -11.0      3.521      4.664
REMARK SMILES Cc1ccc(-c2ccc(N3CCC(C(=O)NCc4cc(F)cc(F)c4)CC3)nn2)c(C)c1
REMARK SMILES IDX 10 1 13 2 12 3 26 4 11 5 27 6 14 7 16 8 15 9 17 11 18 12
REMARK SMILES IDX 20 13 19 14 22 15 23 16 25 17 21 18 24 19 9 20 28 21 8 22
REMARK SMILES IDX 29 23 7 24 6 25 5 26 30 27 4 28 32 29 3 30 2 31 31 32 1 33
REMARK H PARENT 16 10
ROOT
ATOM      1  N   UNL     1     111.532 114.887  78.766  1.00  0.00    -0.355 N 
ATOM      2  C   UNL     1     108.747 115.214  78.016  1.00  0.00     0.082 C 
ATOM      3  C   UNL     1     109.200 115.240  79.474  1.00  0.00     0.035 C 
ATOM      4  C   UNL     1     109.886 115.595  77.073  1.00  0.00     0.035 C 
ATOM      5  C   UNL     1     110.492 114.456  79.708  1.00  0.00     0.119 C 
ATOM      6  C   UNL     1     111.183 114.830  77.345  1.00  0.00     0.119 C 
ENDROOT
BRANCH   2   7
ATOM      7  C   UNL     1     108.170 113.874  77.667  1.00  0.00     0.223 C 
ATOM      8  N   UNL     1     107.931 113.744  76.310  1.00  0.00    -0.352 N 
ATOM      9  O   UNL     1     107.968 113.012  78.519  1.00  0.00    -0.275 OA
ATOM     10  H   UNL     1     108.084 114.535  75.692  1.00  0.00     0.163 HD
BRANCH   8  11
ATOM     11  C   UNL     1     107.398 112.540  75.712  1.00  0.00     0.151 C 
BRANCH  11  12
ATOM     12  C   UNL     1     108.287 112.012  74.623  1.00  0.00    -0.023 A 
ATOM     13  C   UNL     1     110.447 111.924  73.545  1.00  0.00     0.126 A 
ATOM     14  C   UNL     1     109.620 112.415  74.556  1.00  0.00     0.045 A 
ATOM     15  C   UNL     1     109.939 111.032  72.600  1.00  0.00     0.078 A 
ATOM     16  C   UNL     1     108.604 110.629  72.667  1.00  0.00     0.126 A 
ATOM     17  C   UNL     1     107.778 111.120  73.679  1.00  0.00     0.045 A 
ATOM     18  F   UNL     1     111.728 112.310  73.480  1.00  0.00    -0.207 F 
ATOM     19  F   UNL     1     108.117 109.772  71.761  1.00  0.00    -0.207 F 
ENDBRANCH  11  12
ENDBRANCH   8  11
ENDBRANCH   2   7
BRANCH   1  20
ATOM     20  C   UNL     1     112.866 114.717  79.156  1.00  0.00     0.151 A 
ATOM     21  N   UNL     1     113.171 113.761  80.058  1.00  0.00    -0.132 NA
ATOM     22  C   UNL     1     113.815 115.546  78.593  1.00  0.00     0.051 A 
ATOM     23  N   UNL     1     114.467 113.596  80.438  1.00  0.00    -0.148 NA
ATOM     24  C   UNL     1     115.133 115.378  78.977  1.00  0.00     0.035 A 
ATOM     25  C   UNL     1     115.415 114.392  79.902  1.00  0.00     0.093 A 
BRANCH  25  26
ATOM     26  C   UNL     1     116.760 114.147  80.360  1.00  0.00     0.005 A 
ATOM     27  C   UNL     1     117.281 114.830  81.459  1.00  0.00    -0.041 A 
ATOM     28  C   UNL     1     117.544 113.212  79.684  1.00  0.00     0.011 A 
ATOM     29  C   UNL     1     118.586 114.575  81.884  1.00  0.00     0.007 A 
ATOM     30  C   UNL     1     118.848 112.957  80.108  1.00  0.00     0.004 A 
ATOM     31  C   UNL     1     119.369 113.640  81.207  1.00  0.00    -0.051 A 
ATOM     32  C   UNL     1     116.472 115.840  82.208  1.00  0.00     0.045 C 
ATOM     33  C   UNL     1     120.764 113.367  81.661  1.00  0.00     0.044 C 
ENDBRANCH  25  26
ENDBRANCH   1  20
TORSDOF 5
ENDMDL
MODEL 7
REMARK VINA RESULT:     -11.0      3.512      4.679
REMARK SMILES Cc1ccc(-c2ccc(N3CCC(C(=O)NCc4cc(F)cc(F)c4)CC3)nn2)c(C)c1
REMARK SMILES IDX 10 1 13 2 12 3 26 4 11 5 27 6 14 7 16 8 15 9 17 11 18 12
REMARK SMILES IDX 20 13 19 14 22 15 23 16 25 17 21 18 24 19 9 20 28 21 8 22
REMARK SMILES IDX 29 23 7 24 6 25 5 26 30 27 4 28 32 29 3 30 2 31 31 32 1 33
REMARK H PARENT 16 10
ROOT
ATOM      1  N   UNL     1     111.514 114.867  78.785  1.00  0.00    -0.355 N 
ATOM      2  C   UNL     1     108.725 115.184  78.047  1.00  0.00     0.082 C 
ATOM      3  C   UNL     1     109.182 115.190  79.504  1.00  0.00     0.035 C 
ATOM      4  C   UNL     1     109.858 115.590  77.108  1.00  0.00     0.035 C 
ATOM      5  C   UNL     1     110.481 114.413  79.721  1.00  0.00     0.119 C 
ATOM      6  C   UNL     1     111.162 114.831  77.363  1.00  0.00     0.119 C 
ENDROOT
BRANCH   2   7
ATOM      7  C   UNL     1     108.158 113.845  77.678  1.00  0.00     0.223 C 
ATOM      8  N   UNL     1     107.898 113.742  76.322  1.00  0.00    -0.352 N 
ATOM      9  O   UNL     1     107.979 112.962  78.513  1.00  0.00    -0.275 OA
ATOM     10  H   UNL     1     108.032 114.548  75.720  1.00  0.00     0.163 HD
BRANCH   8  11
ATOM     11  C   UNL     1     107.370 112.546  75.706  1.00  0.00     0.151 C 
BRANCH  11  12
ATOM     12  C   UNL     1     108.251 112.047  74.597  1.00  0.00    -0.023 A 
ATOM     13  C   UNL     1     108.587 110.636  72.666  1.00  0.00     0.126 A 
ATOM     14  C   UNL     1     107.769 111.099  73.697  1.00  0.00     0.045 A 
ATOM     15  C   UNL     1     109.889 111.121  72.538  1.00  0.00     0.078 A 
ATOM     16  C   UNL     1     110.372 112.070  73.439  1.00  0.00     0.126 A 
ATOM     17  C   UNL     1     109.553 112.533  74.470  1.00  0.00     0.045 A 
ATOM     18  F   UNL     1     108.124 109.725  71.800  1.00  0.00    -0.207 F 
ATOM     19  F   UNL     1     111.621 112.537  73.316  1.00  0.00    -0.207 F 
ENDBRANCH  11  12
ENDBRANCH   8  11
ENDBRANCH   2   7
BRANCH   1  20
ATOM     20  C   UNL     1     112.851 114.701  79.168  1.00  0.00     0.151 A 
ATOM     21  N   UNL     1     113.162 113.751  80.074  1.00  0.00    -0.132 NA
ATOM     22  C   UNL     1     113.795 115.529  78.595  1.00  0.00     0.051 A 
ATOM     23  N   UNL     1     114.460 113.590  80.447  1.00  0.00    -0.148 NA
ATOM     24  C   UNL     1     115.115 115.366  78.973  1.00  0.00     0.035 A 
ATOM     25  C   UNL     1     115.405 114.385  79.902  1.00  0.00     0.093 A 
BRANCH  25  26
ATOM     26  C   UNL     1     116.752 114.145  80.353  1.00  0.00     0.005 A 
ATOM     27  C   UNL     1     117.278 114.835  81.446  1.00  0.00    -0.041 A 
ATOM     28  C   UNL     1     117.534 113.207  79.679  1.00  0.00     0.011 A 
ATOM     29  C   UNL     1     118.586 114.585  81.865  1.00  0.00     0.007 A 
ATOM     30  C   UNL     1     118.841 112.958  80.097  1.00  0.00     0.004 A 
ATOM     31  C   UNL     1     119.367 113.647  81.189  1.00  0.00    -0.051 A 
ATOM     32  C   UNL     1     116.471 115.847  82.194  1.00  0.00     0.045 C 
ATOM     33  C   UNL     1     120.764 113.379  81.637  1.00  0.00     0.044 C 
ENDBRANCH  25  26
ENDBRANCH   1  20
TORSDOF 5
ENDMDL
MODEL 8
REMARK VINA RESULT:     -10.9      3.885      4.896
REMARK SMILES Cc1ccc(-c2ccc(N3CCC(C(=O)NCc4cc(F)cc(F)c4)CC3)nn2)c(C)c1
REMARK SMILES IDX 10 1 13 2 12 3 26 4 11 5 27 6 14 7 16 8 15 9 17 11 18 12
REMARK SMILES IDX 20 13 19 14 22 15 23 16 25 17 21 18 24 19 9 20 28 21 8 22
REMARK SMILES IDX 29 23 7 24 6 25 5 26 30 27 4 28 32 29 3 30 2 31 31 32 1 33
REMARK H PARENT 16 10
ROOT
ATOM      1  N   UNL     1     111.440 114.371  78.642  1.00  0.00    -0.355 N 
ATOM      2  C   UNL     1     108.661 114.429  77.803  1.00  0.00     0.082 C 
ATOM      3  C   UNL     1     109.243 113.261  78.595  1.00  0.00     0.035 C 
ATOM      4  C   UNL     1     109.461 115.710  78.034  1.00  0.00     0.035 C 
ATOM      5  C   UNL     1     110.750 113.100  78.395  1.00  0.00     0.119 C 
ATOM      6  C   UNL     1     110.970 115.523  77.868  1.00  0.00     0.119 C 
ENDROOT
BRANCH   2   7
ATOM      7  C   UNL     1     108.580 114.088  76.344  1.00  0.00     0.223 C 
ATOM      8  N   UNL     1     108.059 112.824  76.129  1.00  0.00    -0.352 N 
ATOM      9  O   UNL     1     108.928 114.880  75.472  1.00  0.00    -0.275 OA
ATOM     10  H   UNL     1     107.848 112.224  76.921  1.00  0.00     0.163 HD
BRANCH   8  11
ATOM     11  C   UNL     1     107.856 112.265  74.812  1.00  0.00     0.151 C 
BRANCH  11  12
ATOM     12  C   UNL     1     109.105 111.628  74.273  1.00  0.00    -0.023 A 
ATOM     13  C   UNL     1     111.264 110.612  74.647  1.00  0.00     0.126 A 
ATOM     14  C   UNL     1     110.103 111.203  75.147  1.00  0.00     0.045 A 
ATOM     15  C   UNL     1     111.425 110.447  73.271  1.00  0.00     0.078 A 
ATOM     16  C   UNL     1     110.425 110.873  72.395  1.00  0.00     0.126 A 
ATOM     17  C   UNL     1     109.265 111.465  72.896  1.00  0.00     0.045 A 
ATOM     18  F   UNL     1     112.223 110.202  75.487  1.00  0.00    -0.207 F 
ATOM     19  F   UNL     1     110.580 110.715  71.075  1.00  0.00    -0.207 F 
ENDBRANCH  11  12
ENDBRANCH   8  11
ENDBRANCH   2   7
BRANCH   1  20
ATOM     20  C   UNL     1     112.779 114.311  79.045  1.00  0.00     0.151 A 
ATOM     21  N   UNL     1     113.203 113.250  79.762  1.00  0.00    -0.132 NA
ATOM     22  C   UNL     1     113.609 115.354  78.686  1.00  0.00     0.051 A 
ATOM     23  N   UNL     1     114.504 113.192  80.155  1.00  0.00    -0.148 NA
ATOM     24  C   UNL     1     114.933 115.295  79.085  1.00  0.00     0.035 A 
ATOM     25  C   UNL     1     115.339 114.198  79.818  1.00  0.00     0.093 A 
BRANCH  25  26
ATOM     26  C   UNL     1     116.698 114.054  80.274  1.00  0.00     0.005 A 
ATOM     27  C   UNL     1     117.621 113.291  79.557  1.00  0.00    -0.041 A 
ATOM     28  C   UNL     1     117.086 114.691  81.452  1.00  0.00     0.011 A 
ATOM     29  C   UNL     1     118.932 113.168  80.019  1.00  0.00     0.007 A 
ATOM     30  C   UNL     1     118.396 114.567  81.915  1.00  0.00     0.004 A 
ATOM     31  C   UNL     1     119.319 113.805  81.198  1.00  0.00    -0.051 A 
ATOM     32  C   UNL     1     117.242 112.594  78.290  1.00  0.00     0.045 C 
ATOM     33  C   UNL     1     120.720 113.673  81.692  1.00  0.00     0.044 C 
ENDBRANCH  25  26
ENDBRANCH   1  20
TORSDOF 5
ENDMDL
MODEL 9
REMARK VINA RESULT:     -10.8      3.881      5.071
REMARK SMILES Cc1ccc(-c2ccc(N3CCC(C(=O)NCc4cc(F)cc(F)c4)CC3)nn2)c(C)c1
REMARK SMILES IDX 10 1 13 2 12 3 26 4 11 5 27 6 14 7 16 8 15 9 17 11 18 12
REMARK SMILES IDX 20 13 19 14 22 15 23 16 25 17 21 18 24 19 9 20 28 21 8 22
REMARK SMILES IDX 29 23 7 24 6 25 5 26 30 27 4 28 32 29 3 30 2 31 31 32 1 33
REMARK H PARENT 16 10
ROOT
ATOM      1  N   UNL     1     111.435 114.376  78.647  1.00  0.00    -0.355 N 
ATOM      2  C   UNL     1     108.657 114.433  77.806  1.00  0.00     0.082 C 
ATOM      3  C   UNL     1     109.239 113.265  78.599  1.00  0.00     0.035 C 
ATOM      4  C   UNL     1     109.457 115.713  78.037  1.00  0.00     0.035 C 
ATOM      5  C   UNL     1     110.746 113.104  78.401  1.00  0.00     0.119 C 
ATOM      6  C   UNL     1     110.966 115.527  77.872  1.00  0.00     0.119 C 
ENDROOT
BRANCH   2   7
ATOM      7  C   UNL     1     108.577 114.091  76.347  1.00  0.00     0.223 C 
ATOM      8  N   UNL     1     108.050 112.829  76.133  1.00  0.00    -0.352 N 
ATOM      9  O   UNL     1     108.932 114.880  75.475  1.00  0.00    -0.275 OA
ATOM     10  H   UNL     1     107.835 112.231  76.924  1.00  0.00     0.163 HD
BRANCH   8  11
ATOM     11  C   UNL     1     107.847 112.270  74.815  1.00  0.00     0.151 C 
BRANCH  11  12
ATOM     12  C   UNL     1     109.096 111.635  74.275  1.00  0.00    -0.023 A 
ATOM     13  C   UNL     1     110.420 110.892  72.396  1.00  0.00     0.126 A 
ATOM     14  C   UNL     1     109.260 111.482  72.899  1.00  0.00     0.045 A 
ATOM     15  C   UNL     1     111.415 110.454  73.271  1.00  0.00     0.078 A 
ATOM     16  C   UNL     1     111.250 110.607  74.648  1.00  0.00     0.126 A 
ATOM     17  C   UNL     1     110.090 111.197  75.150  1.00  0.00     0.045 A 
ATOM     18  F   UNL     1     110.579 110.745  71.075  1.00  0.00    -0.207 F 
ATOM     19  F   UNL     1     112.205 110.187  75.488  1.00  0.00    -0.207 F 
ENDBRANCH  11  12
ENDBRANCH   8  11
ENDBRANCH   2   7
BRANCH   1  20
ATOM     20  C   UNL     1     112.775 114.316  79.051  1.00  0.00     0.151 A 
ATOM     21  N   UNL     1     113.199 113.252  79.764  1.00  0.00    -0.132 NA
ATOM     22  C   UNL     1     113.603 115.362  78.698  1.00  0.00     0.051 A 
ATOM     23  N   UNL     1     114.500 113.195  80.158  1.00  0.00    -0.148 NA
ATOM     24  C   UNL     1     114.926 115.304  79.098  1.00  0.00     0.035 A 
ATOM     25  C   UNL     1     115.333 114.203  79.826  1.00  0.00     0.093 A 
BRANCH  25  26
ATOM     26  C   UNL     1     116.693 114.059  80.283  1.00  0.00     0.005 A 
ATOM     27  C   UNL     1     117.616 113.299  79.566  1.00  0.00    -0.041 A 
ATOM     28  C   UNL     1     117.080 114.695  81.462  1.00  0.00     0.011 A 
ATOM     29  C   UNL     1     118.927 113.175  80.028  1.00  0.00     0.007 A 
ATOM     30  C   UNL     1     118.389 114.572  81.925  1.00  0.00     0.004 A 
ATOM     31  C   UNL     1     119.313 113.811  81.208  1.00  0.00    -0.051 A 
ATOM     32  C   UNL     1     117.239 112.603  78.297  1.00  0.00     0.045 C 
ATOM     33  C   UNL     1     120.714 113.679  81.703  1.00  0.00     0.044 C 
ENDBRANCH  25  26
ENDBRANCH   1  20
TORSDOF 5
ENDMDL
MODEL 10
REMARK VINA RESULT:     -10.7      3.456      4.482
REMARK SMILES Cc1ccc(-c2ccc(N3CCC(C(=O)NCc4cc(F)cc(F)c4)CC3)nn2)c(C)c1
REMARK SMILES IDX 10 1 13 2 12 3 26 4 11 5 27 6 14 7 16 8 15 9 17 11 18 12
REMARK SMILES IDX 20 13 19 14 22 15 23 16 25 17 21 18 24 19 9 20 28 21 8 22
REMARK SMILES IDX 29 23 7 24 6 25 5 26 30 27 4 28 32 29 3 30 2 31 31 32 1 33
REMARK H PARENT 16 10
ROOT
ATOM      1  N   UNL     1     111.302 114.821  78.576  1.00  0.00    -0.355 N 
ATOM      2  C   UNL     1     108.531 115.034  77.738  1.00  0.00     0.082 C 
ATOM      3  C   UNL     1     108.944 115.154  79.202  1.00  0.00     0.035 C 
ATOM      4  C   UNL     1     109.685 115.389  76.804  1.00  0.00     0.035 C 
ATOM      5  C   UNL     1     110.247 114.418  79.514  1.00  0.00     0.119 C 
ATOM      6  C   UNL     1     110.992 114.674  77.151  1.00  0.00     0.119 C 
ENDROOT
BRANCH   2   7
ATOM      7  C   UNL     1     107.995 113.662  77.452  1.00  0.00     0.223 C 
ATOM      8  N   UNL     1     107.701 113.483  76.111  1.00  0.00    -0.352 N 
ATOM      9  O   UNL     1     107.869 112.817  78.335  1.00  0.00    -0.275 OA
ATOM     10  H   UNL     1     107.793 114.261  75.466  1.00  0.00     0.163 HD
BRANCH   8  11
ATOM     11  C   UNL     1     107.193 112.242  75.571  1.00  0.00     0.151 C 
BRANCH  11  12
ATOM     12  C   UNL     1     108.052 111.720  74.455  1.00  0.00    -0.023 A 
ATOM     13  C   UNL     1     108.309 110.369  72.469  1.00  0.00     0.126 A 
ATOM     14  C   UNL     1     107.511 110.854  73.506  1.00  0.00     0.045 A 
ATOM     15  C   UNL     1     109.649 110.750  72.384  1.00  0.00     0.078 A 
ATOM     16  C   UNL     1     110.190 111.616  73.334  1.00  0.00     0.126 A 
ATOM     17  C   UNL     1     109.392 112.101  74.371  1.00  0.00     0.045 A 
ATOM     18  F   UNL     1     107.790 109.538  71.556  1.00  0.00    -0.207 F 
ATOM     19  F   UNL     1     111.476 111.982  73.252  1.00  0.00    -0.207 F 
ENDBRANCH  11  12
ENDBRANCH   8  11
ENDBRANCH   2   7
BRANCH   1  20
ATOM     20  C   UNL     1     112.628 114.706  79.009  1.00  0.00     0.151 A 
ATOM     21  N   UNL     1     112.946 113.754  79.910  1.00  0.00    -0.132 NA
ATOM     22  C   UNL     1     113.556 115.585  78.487  1.00  0.00     0.051 A 
ATOM     23  N   UNL     1     114.235 113.644  80.331  1.00  0.00    -0.148 NA
ATOM     24  C   UNL     1     114.867 115.473  78.914  1.00  0.00     0.035 A 
ATOM     25  C   UNL     1     115.164 114.489  79.837  1.00  0.00     0.093 A 
BRANCH  25  26
ATOM     26  C   UNL     1     116.502 114.301  80.337  1.00  0.00     0.005 A 
ATOM     27  C   UNL     1     117.392 113.434  79.702  1.00  0.00    -0.041 A 
ATOM     28  C   UNL     1     116.903 115.001  81.474  1.00  0.00     0.011 A 
ATOM     29  C   UNL     1     118.683 113.268  80.205  1.00  0.00     0.007 A 
ATOM     30  C   UNL     1     118.193 114.835  81.978  1.00  0.00     0.004 A 
ATOM     31  C   UNL     1     119.083 113.968  81.343  1.00  0.00    -0.051 A 
ATOM     32  C   UNL     1     116.998 112.666  78.480  1.00  0.00     0.045 C 
ATOM     33  C   UNL     1     120.463 113.791  81.880  1.00  0.00     0.044 C 
ENDBRANCH  25  26
ENDBRANCH   1  20
TORSDOF 5
ENDMDL
MODEL 11
REMARK VINA RESULT:     -10.7      3.533      4.512
REMARK SMILES Cc1ccc(-c2ccc(N3CCC(C(=O)NCc4cc(F)cc(F)c4)CC3)nn2)c(C)c1
REMARK SMILES IDX 10 1 13 2 12 3 26 4 11 5 27 6 14 7 16 8 15 9 17 11 18 12
REMARK SMILES IDX 20 13 19 14 22 15 23 16 25 17 21 18 24 19 9 20 28 21 8 22
REMARK SMILES IDX 29 23 7 24 6 25 5 26 30 27 4 28 32 29 3 30 2 31 31 32 1 33
REMARK H PARENT 16 10
ROOT
ATOM      1  N   UNL     1     111.701 114.372  78.452  1.00  0.00    -0.355 N 
ATOM      2  C   UNL     1     109.002 114.595  77.407  1.00  0.00     0.082 C 
ATOM      3  C   UNL     1     109.581 113.262  77.875  1.00  0.00     0.035 C 
ATOM      4  C   UNL     1     109.708 115.772  78.076  1.00  0.00     0.035 C 
ATOM      5  C   UNL     1     111.106 113.211  77.781  1.00  0.00     0.119 C 
ATOM      6  C   UNL     1     111.234 115.687  78.006  1.00  0.00     0.119 C 
ENDROOT
BRANCH   2   7
ATOM      7  C   UNL     1     109.060 114.698  75.911  1.00  0.00     0.223 C 
ATOM      8  N   UNL     1     108.815 113.484  75.292  1.00  0.00    -0.352 N 
ATOM      9  O   UNL     1     109.282 115.764  75.342  1.00  0.00    -0.275 OA
ATOM     10  H   UNL     1     108.692 112.647  75.853  1.00  0.00     0.163 HD
BRANCH   8  11
ATOM     11  C   UNL     1     108.791 113.319  73.856  1.00  0.00     0.151 C 
BRANCH  11  12
ATOM     12  C   UNL     1     108.153 112.021  73.450  1.00  0.00    -0.023 A 
ATOM     13  C   UNL     1     107.555 110.432  71.732  1.00  0.00     0.126 A 
ATOM     14  C   UNL     1     108.147 111.638  72.110  1.00  0.00     0.045 A 
ATOM     15  C   UNL     1     106.967 109.611  72.696  1.00  0.00     0.078 A 
ATOM     16  C   UNL     1     106.974 109.996  74.037  1.00  0.00     0.126 A 
ATOM     17  C   UNL     1     107.566 111.201  74.414  1.00  0.00     0.045 A 
ATOM     18  F   UNL     1     107.549 110.063  70.445  1.00  0.00    -0.207 F 
ATOM     19  F   UNL     1     106.411 109.208  74.962  1.00  0.00    -0.207 F 
ENDBRANCH  11  12
ENDBRANCH   8  11
ENDBRANCH   2   7
BRANCH   1  20
ATOM     20  C   UNL     1     113.004 114.235  78.945  1.00  0.00     0.151 A 
ATOM     21  N   UNL     1     113.865 115.267  78.828  1.00  0.00    -0.132 NA
ATOM     22  C   UNL     1     113.349 113.035  79.533  1.00  0.00     0.051 A 
ATOM     23  N   UNL     1     115.131 115.133  79.307  1.00  0.00    -0.148 NA
ATOM     24  C   UNL     1     114.636 112.898  80.021  1.00  0.00     0.035 A 
ATOM     25  C   UNL     1     115.495 113.971  79.887  1.00  0.00     0.093 A 
BRANCH  25  26
ATOM     26  C   UNL     1     116.853 113.917  80.367  1.00  0.00     0.005 A 
ATOM     27  C   UNL     1     117.835 113.213  79.669  1.00  0.00    -0.041 A 
ATOM     28  C   UNL     1     117.179 114.581  81.549  1.00  0.00     0.011 A 
ATOM     29  C   UNL     1     119.144 113.176  80.153  1.00  0.00     0.007 A 
ATOM     30  C   UNL     1     118.487 114.544  82.033  1.00  0.00     0.004 A 
ATOM     31  C   UNL     1     119.469 113.840  81.335  1.00  0.00    -0.051 A 
ATOM     32  C   UNL     1     117.523 112.489  78.398  1.00  0.00     0.045 C 
ATOM     33  C   UNL     1     120.867 113.801  81.853  1.00  0.00     0.044 C 
ENDBRANCH  25  26
ENDBRANCH   1  20
TORSDOF 5
ENDMDL
MODEL 12
REMARK VINA RESULT:     -10.6      3.405      4.440
REMARK SMILES Cc1ccc(-c2ccc(N3CCC(C(=O)NCc4cc(F)cc(F)c4)CC3)nn2)c(C)c1
REMARK SMILES IDX 10 1 13 2 12 3 26 4 11 5 27 6 14 7 16 8 15 9 17 11 18 12
REMARK SMILES IDX 20 13 19 14 22 15 23 16 25 17 21 18 24 19 9 20 28 21 8 22
REMARK SMILES IDX 29 23 7 24 6 25 5 26 30 27 4 28 32 29 3 30 2 31 31 32 1 33
REMARK H PARENT 16 10
ROOT
ATOM      1  N   UNL     1     111.301 114.788  78.492  1.00  0.00    -0.355 N 
ATOM      2  C   UNL     1     108.538 114.997  77.625  1.00  0.00     0.082 C 
ATOM      3  C   UNL     1     108.944 115.182  79.085  1.00  0.00     0.035 C 
ATOM      4  C   UNL     1     109.704 115.292  76.683  1.00  0.00     0.035 C 
ATOM      5  C   UNL     1     110.235 114.445  79.440  1.00  0.00     0.119 C 
ATOM      6  C   UNL     1     110.998 114.577  77.074  1.00  0.00     0.119 C 
ENDROOT
BRANCH   2   7
ATOM      7  C   UNL     1     107.986 113.620  77.401  1.00  0.00     0.223 C 
ATOM      8  N   UNL     1     107.667 113.392  76.074  1.00  0.00    -0.352 N 
ATOM      9  O   UNL     1     107.868 112.811  78.319  1.00  0.00    -0.275 OA
ATOM     10  H   UNL     1     107.753 114.144  75.398  1.00  0.00     0.163 HD
BRANCH   8  11
ATOM     11  C   UNL     1     107.138 112.136  75.592  1.00  0.00     0.151 C 
BRANCH  11  12
ATOM     12  C   UNL     1     107.772 111.720  74.295  1.00  0.00    -0.023 A 
ATOM     13  C   UNL     1     109.394 112.096  72.545  1.00  0.00     0.126 A 
ATOM     14  C   UNL     1     108.804 112.481  73.749  1.00  0.00     0.045 A 
ATOM     15  C   UNL     1     108.948 110.949  71.886  1.00  0.00     0.078 A 
ATOM     16  C   UNL     1     107.914 110.188  72.432  1.00  0.00     0.126 A 
ATOM     17  C   UNL     1     107.325 110.574  73.637  1.00  0.00     0.045 A 
ATOM     18  F   UNL     1     110.386 112.826  72.020  1.00  0.00    -0.207 F 
ATOM     19  F   UNL     1     107.486 109.087  71.800  1.00  0.00    -0.207 F 
ENDBRANCH  11  12
ENDBRANCH   8  11
ENDBRANCH   2   7
BRANCH   1  20
ATOM     20  C   UNL     1     112.623 114.678  78.939  1.00  0.00     0.151 A 
ATOM     21  N   UNL     1     112.949 113.680  79.786  1.00  0.00    -0.132 NA
ATOM     22  C   UNL     1     113.537 115.607  78.487  1.00  0.00     0.051 A 
ATOM     23  N   UNL     1     114.234 113.573  80.221  1.00  0.00    -0.148 NA
ATOM     24  C   UNL     1     114.844 115.499  78.928  1.00  0.00     0.035 A 
ATOM     25  C   UNL     1     115.150 114.468  79.794  1.00  0.00     0.093 A 
BRANCH  25  26
ATOM     26  C   UNL     1     116.485 114.279  80.304  1.00  0.00     0.005 A 
ATOM     27  C   UNL     1     117.382 113.420  79.669  1.00  0.00    -0.041 A 
ATOM     28  C   UNL     1     116.874 114.971  81.451  1.00  0.00     0.011 A 
ATOM     29  C   UNL     1     118.670 113.255  80.182  1.00  0.00     0.007 A 
ATOM     30  C   UNL     1     118.160 114.805  81.964  1.00  0.00     0.004 A 
ATOM     31  C   UNL     1     119.058 113.946  81.329  1.00  0.00    -0.051 A 
ATOM     32  C   UNL     1     117.001 112.662  78.438  1.00  0.00     0.045 C 
ATOM     33  C   UNL     1     120.434 113.769  81.877  1.00  0.00     0.044 C 
ENDBRANCH  25  26
ENDBRANCH   1  20
TORSDOF 5
ENDMDL
MODEL 13
REMARK VINA RESULT:     -10.5      1.432      2.143
REMARK SMILES Cc1ccc(-c2ccc(N3CCC(C(=O)NCc4cc(F)cc(F)c4)CC3)nn2)c(C)c1
REMARK SMILES IDX 10 1 13 2 12 3 26 4 11 5 27 6 14 7 16 8 15 9 17 11 18 12
REMARK SMILES IDX 20 13 19 14 22 15 23 16 25 17 21 18 24 19 9 20 28 21 8 22
REMARK SMILES IDX 29 23 7 24 6 25 5 26 30 27 4 28 32 29 3 30 2 31 31 32 1 33
REMARK H PARENT 16 10
ROOT
ATOM      1  N   UNL     1     111.508 114.804  78.806  1.00  0.00    -0.355 N 
ATOM      2  C   UNL     1     108.715 115.113  78.079  1.00  0.00     0.082 C 
ATOM      3  C   UNL     1     109.153 114.862  79.520  1.00  0.00     0.035 C 
ATOM      4  C   UNL     1     109.836 115.748  77.260  1.00  0.00     0.035 C 
ATOM      5  C   UNL     1     110.490 114.126  79.615  1.00  0.00     0.119 C 
ATOM      6  C   UNL     1     111.176 115.022  77.396  1.00  0.00     0.119 C 
ENDROOT
BRANCH   2   7
ATOM      7  C   UNL     1     108.227 113.842  77.449  1.00  0.00     0.223 C 
ATOM      8  N   UNL     1     107.827 112.909  78.390  1.00  0.00    -0.352 N 
ATOM      9  O   UNL     1     108.184 113.697  76.229  1.00  0.00    -0.275 OA
ATOM     10  H   UNL     1     107.950 113.106  79.378  1.00  0.00     0.163 HD
BRANCH   8  11
ATOM     11  C   UNL     1     107.295 111.611  78.042  1.00  0.00     0.151 C 
BRANCH  11  12
ATOM     12  C   UNL     1     105.838 111.490  78.383  1.00  0.00    -0.023 A 
ATOM     13  C   UNL     1     103.648 110.584  77.914  1.00  0.00     0.126 A 
ATOM     14  C   UNL     1     105.002 110.697  77.598  1.00  0.00     0.045 A 
ATOM     15  C   UNL     1     103.130 111.267  79.015  1.00  0.00     0.078 A 
ATOM     16  C   UNL     1     103.967 112.062  79.800  1.00  0.00     0.126 A 
ATOM     17  C   UNL     1     105.321 112.174  79.484  1.00  0.00     0.045 A 
ATOM     18  F   UNL     1     102.845 109.821  77.161  1.00  0.00    -0.207 F 
ATOM     19  F   UNL     1     103.470 112.717  80.857  1.00  0.00    -0.207 F 
ENDBRANCH  11  12
ENDBRANCH   8  11
ENDBRANCH   2   7
BRANCH   1  20
ATOM     20  C   UNL     1     112.847 114.636  79.181  1.00  0.00     0.151 A 
ATOM     21  N   UNL     1     113.180 113.608  79.989  1.00  0.00    -0.132 NA
ATOM     22  C   UNL     1     113.771 115.542  78.701  1.00  0.00     0.051 A 
ATOM     23  N   UNL     1     114.480 113.446  80.354  1.00  0.00    -0.148 NA
ATOM     24  C   UNL     1     115.093 115.377  79.071  1.00  0.00     0.035 A 
ATOM     25  C   UNL     1     115.405 114.317  79.899  1.00  0.00     0.093 A 
BRANCH  25  26
ATOM     26  C   UNL     1     116.757 114.069  80.334  1.00  0.00     0.005 A 
ATOM     27  C   UNL     1     117.306 114.769  81.409  1.00  0.00    -0.041 A 
ATOM     28  C   UNL     1     117.518 113.113  79.663  1.00  0.00     0.011 A 
ATOM     29  C   UNL     1     118.617 114.511  81.813  1.00  0.00     0.007 A 
ATOM     30  C   UNL     1     118.828 112.856  80.065  1.00  0.00     0.004 A 
ATOM     31  C   UNL     1     119.378 113.555  81.140  1.00  0.00    -0.051 A 
ATOM     32  C   UNL     1     116.520 115.801  82.154  1.00  0.00     0.045 C 
ATOM     33  C   UNL     1     120.779 113.279  81.571  1.00  0.00     0.044 C 
ENDBRANCH  25  26
ENDBRANCH   1  20
TORSDOF 5
ENDMDL
MODEL 14
REMARK VINA RESULT:     -10.4      1.118      1.348
REMARK SMILES Cc1ccc(-c2ccc(N3CCC(C(=O)NCc4cc(F)cc(F)c4)CC3)nn2)c(C)c1
REMARK SMILES IDX 10 1 13 2 12 3 26 4 11 5 27 6 14 7 16 8 15 9 17 11 18 12
REMARK SMILES IDX 20 13 19 14 22 15 23 16 25 17 21 18 24 19 9 20 28 21 8 22
REMARK SMILES IDX 29 23 7 24 6 25 5 26 30 27 4 28 32 29 3 30 2 31 31 32 1 33
REMARK H PARENT 16 10
ROOT
ATOM      1  N   UNL     1     110.325 112.994  77.290  1.00  0.00    -0.355 N 
ATOM      2  C   UNL     1     107.765 112.395  76.059  1.00  0.00     0.082 C 
ATOM      3  C   UNL     1     108.065 113.757  76.681  1.00  0.00     0.035 C 
ATOM      4  C   UNL     1     109.048 111.681  75.640  1.00  0.00     0.035 C 
ATOM      5  C   UNL     1     109.128 113.688  77.778  1.00  0.00     0.119 C 
ATOM      6  C   UNL     1     110.116 111.654  76.735  1.00  0.00     0.119 C 
ENDROOT
BRANCH   2   7
ATOM      7  C   UNL     1     106.951 111.555  76.999  1.00  0.00     0.223 C 
ATOM      8  N   UNL     1     105.761 111.136  76.431  1.00  0.00    -0.352 N 
ATOM      9  O   UNL     1     107.345 111.277  78.129  1.00  0.00    -0.275 OA
ATOM     10  H   UNL     1     105.501 111.462  75.505  1.00  0.00     0.163 HD
BRANCH   8  11
ATOM     11  C   UNL     1     104.807 110.296  77.120  1.00  0.00     0.151 C 
BRANCH  11  12
ATOM     12  C   UNL     1     104.059 111.049  78.181  1.00  0.00    -0.023 A 
ATOM     13  C   UNL     1     103.189 111.183  80.431  1.00  0.00     0.126 A 
ATOM     14  C   UNL     1     103.885 110.484  79.444  1.00  0.00     0.045 A 
ATOM     15  C   UNL     1     102.667 112.447  80.154  1.00  0.00     0.078 A 
ATOM     16  C   UNL     1     102.841 113.012  78.890  1.00  0.00     0.126 A 
ATOM     17  C   UNL     1     103.536 112.312  77.903  1.00  0.00     0.045 A 
ATOM     18  F   UNL     1     103.023 110.642  81.645  1.00  0.00    -0.207 F 
ATOM     19  F   UNL     1     102.340 114.225  78.623  1.00  0.00    -0.207 F 
ENDBRANCH  11  12
ENDBRANCH   8  11
ENDBRANCH   2   7
BRANCH   1  20
ATOM     20  C   UNL     1     111.545 113.303  77.903  1.00  0.00     0.151 A 
ATOM     21  N   UNL     1     112.442 112.318  78.118  1.00  0.00    -0.132 NA
ATOM     22  C   UNL     1     111.773 114.616  78.262  1.00  0.00     0.051 A 
ATOM     23  N   UNL     1     113.627 112.619  78.714  1.00  0.00    -0.148 NA
ATOM     24  C   UNL     1     112.978 114.923  78.868  1.00  0.00     0.035 A 
ATOM     25  C   UNL     1     113.877 113.895  79.075  1.00  0.00     0.093 A 
BRANCH  25  26
ATOM     26  C   UNL     1     115.156 114.124  79.699  1.00  0.00     0.005 A 
ATOM     27  C   UNL     1     116.315 113.528  79.202  1.00  0.00    -0.041 A 
ATOM     28  C   UNL     1     115.224 114.955  80.817  1.00  0.00     0.011 A 
ATOM     29  C   UNL     1     117.543 113.765  79.823  1.00  0.00     0.007 A 
ATOM     30  C   UNL     1     116.450 115.191  81.438  1.00  0.00     0.004 A 
ATOM     31  C   UNL     1     117.609 114.596  80.941  1.00  0.00    -0.051 A 
ATOM     32  C   UNL     1     116.282 112.631  78.006  1.00  0.00     0.045 C 
ATOM     33  C   UNL     1     118.921 114.849  81.605  1.00  0.00     0.044 C 
ENDBRANCH  25  26
ENDBRANCH   1  20
TORSDOF 5
ENDMDL
MODEL 15
REMARK VINA RESULT:     -10.3      3.608      4.742
REMARK SMILES Cc1ccc(-c2ccc(N3CCC(C(=O)NCc4cc(F)cc(F)c4)CC3)nn2)c(C)c1
REMARK SMILES IDX 10 1 13 2 12 3 26 4 11 5 27 6 14 7 16 8 15 9 17 11 18 12
REMARK SMILES IDX 20 13 19 14 22 15 23 16 25 17 21 18 24 19 9 20 28 21 8 22
REMARK SMILES IDX 29 23 7 24 6 25 5 26 30 27 4 28 32 29 3 30 2 31 31 32 1 33
REMARK H PARENT 16 10
ROOT
ATOM      1  N   UNL     1     110.890 114.026  78.464  1.00  0.00    -0.355 N 
ATOM      2  C   UNL     1     108.104 113.888  77.663  1.00  0.00     0.082 C 
ATOM      3  C   UNL     1     108.564 113.485  79.061  1.00  0.00     0.035 C 
ATOM      4  C   UNL     1     109.081 114.868  77.017  1.00  0.00     0.035 C 
ATOM      5  C   UNL     1     110.023 113.027  79.098  1.00  0.00     0.119 C 
ATOM      6  C   UNL     1     110.540 114.414  77.095  1.00  0.00     0.119 C 
ENDROOT
BRANCH   2   7
ATOM      7  C   UNL     1     107.897 112.674  76.806  1.00  0.00     0.223 C 
ATOM      8  N   UNL     1     107.325 112.985  75.584  1.00  0.00    -0.352 N 
ATOM      9  O   UNL     1     108.232 111.551  77.178  1.00  0.00    -0.275 OA
ATOM     10  H   UNL     1     107.037 113.939  75.390  1.00  0.00     0.163 HD
BRANCH   8  11
ATOM     11  C   UNL     1     107.044 111.997  74.567  1.00  0.00     0.151 C 
BRANCH  11  12
ATOM     12  C   UNL     1     108.080 111.998  73.480  1.00  0.00    -0.023 A 
ATOM     13  C   UNL     1     109.933 110.932  72.356  1.00  0.00     0.126 A 
ATOM     14  C   UNL     1     108.971 110.932  73.366  1.00  0.00     0.045 A 
ATOM     15  C   UNL     1     110.005 112.001  71.461  1.00  0.00     0.078 A 
ATOM     16  C   UNL     1     109.113 113.068  71.576  1.00  0.00     0.126 A 
ATOM     17  C   UNL     1     108.151 113.066  72.586  1.00  0.00     0.045 A 
ATOM     18  F   UNL     1     110.789 109.908  72.245  1.00  0.00    -0.207 F 
ATOM     19  F   UNL     1     109.181 114.093  70.717  1.00  0.00    -0.207 F 
ENDBRANCH  11  12
ENDBRANCH   8  11
ENDBRANCH   2   7
BRANCH   1  20
ATOM     20  C   UNL     1     112.229 114.069  78.871  1.00  0.00     0.151 A 
ATOM     21  N   UNL     1     112.744 113.024  79.551  1.00  0.00    -0.132 NA
ATOM     22  C   UNL     1     112.965 115.193  78.554  1.00  0.00     0.051 A 
ATOM     23  N   UNL     1     114.044 113.066  79.947  1.00  0.00    -0.148 NA
ATOM     24  C   UNL     1     114.288 115.236  78.956  1.00  0.00     0.035 A 
ATOM     25  C   UNL     1     114.788 114.152  79.650  1.00  0.00     0.093 A 
BRANCH  25  26
ATOM     26  C   UNL     1     116.154 114.112  80.107  1.00  0.00     0.005 A 
ATOM     27  C   UNL     1     117.114 113.352  79.438  1.00  0.00    -0.041 A 
ATOM     28  C   UNL     1     116.511 114.847  81.237  1.00  0.00     0.011 A 
ATOM     29  C   UNL     1     118.431 113.329  79.900  1.00  0.00     0.007 A 
ATOM     30  C   UNL     1     117.826 114.824  81.699  1.00  0.00     0.004 A 
ATOM     31  C   UNL     1     118.786 114.064  81.030  1.00  0.00    -0.051 A 
ATOM     32  C   UNL     1     116.770 112.551  78.224  1.00  0.00     0.045 C 
ATOM     33  C   UNL     1     120.194 114.040  81.524  1.00  0.00     0.044 C 
ENDBRANCH  25  26
ENDBRANCH   1  20
TORSDOF 5
ENDMDL
