MODEL 1
REMARK VINA RESULT:     -11.2      0.000      0.000
REMARK SMILES O=C(C1CCCCC1)N1C[C@@H]2C[C@@H](C1)c1ccc(-c3ccccc3C[NH+]3CCOCC3)c(=O)n1C2
REMARK SMILES IDX 19 1 24 2 20 3 23 4 21 5 22 6 18 7 9 8 10 9 14 10 11 11
REMARK SMILES IDX 13 12 12 13 35 14 15 15 34 16 16 17 32 18 17 19 33 20 2 21
REMARK SMILES IDX 1 22 3 23 4 24 8 25 5 26 7 27 6 28 25 29 26 30 27 31 31 32
REMARK SMILES IDX 28 33 30 34 29 35
REMARK H PARENT 26 36
ROOT
ATOM      1  C   UNL     1     106.963 111.561  78.108  1.00  0.00    -0.004 A 
ATOM      2  C   UNL     1     106.828 110.729  76.995  1.00  0.00     0.014 A 
ATOM      3  C   UNL     1     105.840 111.880  78.875  1.00  0.00     0.009 A 
ATOM      4  C   UNL     1     105.577 110.218  76.651  1.00  0.00     0.010 A 
ATOM      5  C   UNL     1     104.589 111.369  78.532  1.00  0.00     0.001 A 
ATOM      6  C   UNL     1     104.458 110.537  77.420  1.00  0.00     0.001 A 
ENDROOT
BRANCH   1   7
ATOM      7  C   UNL     1     108.271 112.118  78.498  1.00  0.00     0.048 A 
ATOM      8  N   UNL     1     114.101 114.884  79.071  1.00  0.00    -0.341 N 
ATOM      9  C   UNL     1     113.173 115.764  78.233  1.00  0.00     0.125 C 
ATOM     10  C   UNL     1     113.515 113.700  79.830  1.00  0.00     0.129 C 
ATOM     11  C   UNL     1     111.680 115.914  78.752  1.00  0.00     0.029 C 
ATOM     12  C   UNL     1     112.023 113.817  79.647  1.00  0.00     0.056 C 
ATOM     13  C   UNL     1     111.639 115.237  80.094  1.00  0.00     0.019 C 
ATOM     14  C   UNL     1     110.551 115.212  77.883  1.00  0.00     0.131 C 
ATOM     15  C   UNL     1     110.744 113.144  79.338  1.00  0.00     0.026 A 
ATOM     16  N   UNL     1     109.983 113.895  78.411  1.00  0.00    -0.311 N 
ATOM     17  C   UNL     1     110.317 111.971  79.812  1.00  0.00     0.023 A 
ATOM     18  C   UNL     1     108.754 113.430  77.928  1.00  0.00     0.258 A 
ATOM     19  C   UNL     1     109.040 111.462  79.386  1.00  0.00     0.016 A 
ATOM     20  O   UNL     1     108.080 114.021  77.085  1.00  0.00    -0.269 OA
BRANCH   8  21
ATOM     21  C   UNL     1     115.475 115.127  79.015  1.00  0.00     0.225 C 
ATOM     22  O   UNL     1     116.024 115.800  78.141  1.00  0.00    -0.275 OA
BRANCH  21  23
ATOM     23  C   UNL     1     116.296 114.512  80.110  1.00  0.00     0.078 C 
ATOM     24  C   UNL     1     116.783 115.601  81.070  1.00  0.00     0.013 C 
ATOM     25  C   UNL     1     117.467 113.730  79.510  1.00  0.00     0.013 C 
ATOM     26  C   UNL     1     117.701 115.033  82.148  1.00  0.00     0.001 C 
ATOM     27  C   UNL     1     118.383 113.167  80.592  1.00  0.00     0.001 C 
ATOM     28  C   UNL     1     118.867 114.257  81.544  1.00  0.00     0.000 C 
ENDBRANCH  21  23
ENDBRANCH   8  21
ENDBRANCH   1   7
BRANCH   2  29
ATOM     29  C   UNL     1     108.005 110.366  76.149  1.00  0.00     0.299 C 
BRANCH  29  30
ATOM     30  N   UNL     1     108.311 111.384  75.088  1.00  0.00    -0.327 N 
ATOM     31  C   UNL     1     109.792 111.651  74.968  1.00  0.00     0.291 C 
ATOM     32  C   UNL     1     107.725 111.004  73.748  1.00  0.00     0.291 C 
ATOM     33  C   UNL     1     110.001 112.726  73.915  1.00  0.00     0.221 C 
ATOM     34  C   UNL     1     108.039 112.112  72.758  1.00  0.00     0.221 C 
ATOM     35  O   UNL     1     109.450 112.314  72.662  1.00  0.00    -0.370 OA
ATOM     36  H   UNL     1     107.861 112.264  75.376  1.00  0.00     0.348 HD
ENDBRANCH  29  30
ENDBRANCH   2  29
TORSDOF 5
ENDMDL
MODEL 2
REMARK VINA RESULT:     -10.9      1.334      1.760
REMARK SMILES O=C(C1CCCCC1)N1C[C@@H]2C[C@@H](C1)c1ccc(-c3ccccc3C[NH+]3CCOCC3)c(=O)n1C2
REMARK SMILES IDX 19 1 24 2 20 3 23 4 21 5 22 6 18 7 9 8 10 9 14 10 11 11
REMARK SMILES IDX 13 12 12 13 35 14 15 15 34 16 16 17 32 18 17 19 33 20 2 21
REMARK SMILES IDX 1 22 3 23 4 24 8 25 5 26 7 27 6 28 25 29 26 30 27 31 31 32
REMARK SMILES IDX 28 33 30 34 29 35
REMARK H PARENT 26 36
ROOT
ATOM      1  C   UNL     1     107.246 112.172  77.916  1.00  0.00    -0.004 A 
ATOM      2  C   UNL     1     106.765 112.590  76.673  1.00  0.00     0.014 A 
ATOM      3  C   UNL     1     106.357 111.689  78.877  1.00  0.00     0.009 A 
ATOM      4  C   UNL     1     105.400 112.523  76.393  1.00  0.00     0.010 A 
ATOM      5  C   UNL     1     104.991 111.622  78.598  1.00  0.00     0.001 A 
ATOM      6  C   UNL     1     104.514 112.039  77.356  1.00  0.00     0.001 A 
ENDROOT
BRANCH   1   7
ATOM      7  C   UNL     1     108.683 112.230  78.242  1.00  0.00     0.048 A 
ATOM      8  N   UNL     1     114.934 113.593  79.258  1.00  0.00    -0.341 N 
ATOM      9  C   UNL     1     114.054 114.760  79.706  1.00  0.00     0.125 C 
ATOM     10  C   UNL     1     114.280 112.262  78.911  1.00  0.00     0.129 C 
ATOM     11  C   UNL     1     112.728 114.386  80.496  1.00  0.00     0.029 C 
ATOM     12  C   UNL     1     112.826 112.431  79.276  1.00  0.00     0.056 C 
ATOM     13  C   UNL     1     112.798 112.903  80.739  1.00  0.00     0.019 C 
ATOM     14  C   UNL     1     111.355 114.632  79.738  1.00  0.00     0.131 C 
ATOM     15  C   UNL     1     111.411 112.241  78.896  1.00  0.00     0.026 A 
ATOM     16  N   UNL     1     110.653 113.409  79.151  1.00  0.00    -0.311 N 
ATOM     17  C   UNL     1     110.863 111.150  78.356  1.00  0.00     0.023 A 
ATOM     18  C   UNL     1     109.294 113.482  78.823  1.00  0.00     0.258 A 
ATOM     19  C   UNL     1     109.459 111.151  78.039  1.00  0.00     0.016 A 
ATOM     20  O   UNL     1     108.605 114.491  78.977  1.00  0.00    -0.269 OA
BRANCH   8  21
ATOM     21  C   UNL     1     116.298 113.824  79.069  1.00  0.00     0.225 C 
ATOM     22  O   UNL     1     116.794 114.209  78.008  1.00  0.00    -0.275 OA
BRANCH  21  23
ATOM     23  C   UNL     1     117.178 113.577  80.259  1.00  0.00     0.078 C 
ATOM     24  C   UNL     1     117.394 114.883  81.026  1.00  0.00     0.013 C 
ATOM     25  C   UNL     1     118.506 112.964  79.809  1.00  0.00     0.013 C 
ATOM     26  C   UNL     1     118.361 114.699  82.193  1.00  0.00     0.001 C 
ATOM     27  C   UNL     1     119.469 112.784  80.978  1.00  0.00     0.001 C 
ATOM     28  C   UNL     1     119.684 114.090  81.738  1.00  0.00     0.000 C 
ENDBRANCH  21  23
ENDBRANCH   8  21
ENDBRANCH   1   7
BRANCH   2  29
ATOM     29  C   UNL     1     107.685 113.113  75.618  1.00  0.00     0.299 C 
BRANCH  29  30
ATOM     30  N   UNL     1     108.284 112.033  74.763  1.00  0.00    -0.327 N 
ATOM     31  C   UNL     1     107.585 111.912  73.430  1.00  0.00     0.291 C 
ATOM     32  C   UNL     1     109.771 112.217  74.573  1.00  0.00     0.291 C 
ATOM     33  C   UNL     1     108.220 110.766  72.660  1.00  0.00     0.221 C 
ATOM     34  C   UNL     1     110.294 111.055  73.746  1.00  0.00     0.221 C 
ATOM     35  O   UNL     1     109.620 110.994  72.487  1.00  0.00    -0.370 OA
ATOM     36  H   UNL     1     108.150 111.143  75.264  1.00  0.00     0.348 HD
ENDBRANCH  29  30
ENDBRANCH   2  29
TORSDOF 5
ENDMDL
MODEL 3
REMARK VINA RESULT:      -9.9      1.705      2.343
REMARK SMILES O=C(C1CCCCC1)N1C[C@@H]2C[C@@H](C1)c1ccc(-c3ccccc3C[NH+]3CCOCC3)c(=O)n1C2
REMARK SMILES IDX 19 1 24 2 20 3 23 4 21 5 22 6 18 7 9 8 10 9 14 10 11 11
REMARK SMILES IDX 13 12 12 13 35 14 15 15 34 16 16 17 32 18 17 19 33 20 2 21
REMARK SMILES IDX 1 22 3 23 4 24 8 25 5 26 7 27 6 28 25 29 26 30 27 31 31 32
REMARK SMILES IDX 28 33 30 34 29 35
REMARK H PARENT 26 36
ROOT
ATOM      1  C   UNL     1     108.547 110.782  75.808  1.00  0.00    -0.004 A 
ATOM      2  C   UNL     1     108.445 110.933  74.424  1.00  0.00     0.014 A 
ATOM      3  C   UNL     1     107.546 110.104  76.507  1.00  0.00     0.009 A 
ATOM      4  C   UNL     1     107.348 110.407  73.742  1.00  0.00     0.010 A 
ATOM      5  C   UNL     1     106.449 109.577  75.826  1.00  0.00     0.001 A 
ATOM      6  C   UNL     1     106.350 109.728  74.443  1.00  0.00     0.001 A 
ENDROOT
BRANCH   1   7
ATOM      7  C   UNL     1     109.693 111.327  76.558  1.00  0.00     0.048 A 
ATOM      8  N   UNL     1     114.668 114.620  79.082  1.00  0.00    -0.341 N 
ATOM      9  C   UNL     1     113.505 115.564  78.774  1.00  0.00     0.125 C 
ATOM     10  C   UNL     1     114.439 113.115  79.019  1.00  0.00     0.129 C 
ATOM     11  C   UNL     1     112.052 115.044  79.148  1.00  0.00     0.029 C 
ATOM     12  C   UNL     1     112.957 112.954  78.790  1.00  0.00     0.056 C 
ATOM     13  C   UNL     1     112.256 113.756  79.898  1.00  0.00     0.019 C 
ATOM     14  C   UNL     1     111.090 114.688  77.937  1.00  0.00     0.131 C 
ATOM     15  C   UNL     1     111.873 112.278  78.047  1.00  0.00     0.026 A 
ATOM     16  N   UNL     1     110.899 113.208  77.610  1.00  0.00    -0.311 N 
ATOM     17  C   UNL     1     111.779 110.977  77.766  1.00  0.00     0.023 A 
ATOM     18  C   UNL     1     109.801 112.806  76.839  1.00  0.00     0.258 A 
ATOM     19  C   UNL     1     110.648 110.498  77.015  1.00  0.00     0.016 A 
ATOM     20  O   UNL     1     108.955 113.582  76.393  1.00  0.00    -0.269 OA
BRANCH   8  21
ATOM     21  C   UNL     1     115.933 115.172  79.297  1.00  0.00     0.225 C 
ATOM     22  O   UNL     1     116.375 116.146  78.684  1.00  0.00    -0.275 OA
BRANCH  21  23
ATOM     23  C   UNL     1     116.770 114.509  80.350  1.00  0.00     0.078 C 
ATOM     24  C   UNL     1     117.323 115.561  81.314  1.00  0.00     0.013 C 
ATOM     25  C   UNL     1     117.895 113.704  79.693  1.00  0.00     0.013 C 
ATOM     26  C   UNL     1     118.259 114.941  82.349  1.00  0.00     0.001 C 
ATOM     27  C   UNL     1     118.828 113.090  80.731  1.00  0.00     0.001 C 
ATOM     28  C   UNL     1     119.379 114.143  81.689  1.00  0.00     0.000 C 
ENDBRANCH  21  23
ENDBRANCH   8  21
ENDBRANCH   1   7
BRANCH   2  29
ATOM     29  C   UNL     1     109.494 111.653  73.640  1.00  0.00     0.299 C 
BRANCH  29  30
ATOM     30  N   UNL     1     109.007 112.141  72.305  1.00  0.00    -0.327 N 
ATOM     31  C   UNL     1     108.061 113.310  72.438  1.00  0.00     0.291 C 
ATOM     32  C   UNL     1     110.148 112.478  71.372  1.00  0.00     0.291 C 
ATOM     33  C   UNL     1     107.583 113.698  71.049  1.00  0.00     0.221 C 
ATOM     34  C   UNL     1     109.562 112.908  70.039  1.00  0.00     0.221 C 
ATOM     35  O   UNL     1     108.692 114.028  70.211  1.00  0.00    -0.370 OA
ATOM     36  H   UNL     1     108.483 111.367  71.874  1.00  0.00     0.348 HD
ENDBRANCH  29  30
ENDBRANCH   2  29
TORSDOF 5
ENDMDL
MODEL 4
REMARK VINA RESULT:      -9.7      1.527      3.628
REMARK SMILES O=C(C1CCCCC1)N1C[C@@H]2C[C@@H](C1)c1ccc(-c3ccccc3C[NH+]3CCOCC3)c(=O)n1C2
REMARK SMILES IDX 19 1 24 2 20 3 23 4 21 5 22 6 18 7 9 8 10 9 14 10 11 11
REMARK SMILES IDX 13 12 12 13 35 14 15 15 34 16 16 17 32 18 17 19 33 20 2 21
REMARK SMILES IDX 1 22 3 23 4 24 8 25 5 26 7 27 6 28 25 29 26 30 27 31 31 32
REMARK SMILES IDX 28 33 30 34 29 35
REMARK H PARENT 26 36
ROOT
ATOM      1  C   UNL     1     109.023 110.938  74.386  1.00  0.00    -0.004 A 
ATOM      2  C   UNL     1     107.899 110.268  74.872  1.00  0.00     0.014 A 
ATOM      3  C   UNL     1     109.137 111.201  73.020  1.00  0.00     0.009 A 
ATOM      4  C   UNL     1     106.893 109.862  73.995  1.00  0.00     0.010 A 
ATOM      5  C   UNL     1     108.131 110.796  72.142  1.00  0.00     0.001 A 
ATOM      6  C   UNL     1     107.009 110.127  72.630  1.00  0.00     0.001 A 
ENDROOT
BRANCH   1   7
ATOM      7  C   UNL     1     110.103 111.380  75.287  1.00  0.00     0.048 A 
ATOM      8  N   UNL     1     114.558 114.414  78.881  1.00  0.00    -0.341 N 
ATOM      9  C   UNL     1     113.216 115.145  78.965  1.00  0.00     0.125 C 
ATOM     10  C   UNL     1     114.611 113.034  78.240  1.00  0.00     0.129 C 
ATOM     11  C   UNL     1     111.923 114.236  79.111  1.00  0.00     0.029 C 
ATOM     12  C   UNL     1     113.173 112.671  77.969  1.00  0.00     0.056 C 
ATOM     13  C   UNL     1     112.425 112.831  79.302  1.00  0.00     0.019 C 
ATOM     14  C   UNL     1     110.950 114.177  77.858  1.00  0.00     0.131 C 
ATOM     15  C   UNL     1     112.178 112.121  77.024  1.00  0.00     0.026 A 
ATOM     16  N   UNL     1     111.015 112.926  76.983  1.00  0.00    -0.311 N 
ATOM     17  C   UNL     1     112.309 111.033  76.261  1.00  0.00     0.023 A 
ATOM     18  C   UNL     1     109.953 112.631  76.119  1.00  0.00     0.258 A 
ATOM     19  C   UNL     1     111.231 110.654  75.385  1.00  0.00     0.016 A 
ATOM     20  O   UNL     1     108.944 113.327  76.010  1.00  0.00    -0.269 OA
BRANCH   8  21
ATOM     21  C   UNL     1     115.709 115.091  79.291  1.00  0.00     0.225 C 
ATOM     22  O   UNL     1     116.122 116.130  78.772  1.00  0.00    -0.275 OA
BRANCH  21  23
ATOM     23  C   UNL     1     116.457 114.480  80.439  1.00  0.00     0.078 C 
ATOM     24  C   UNL     1     116.965 115.580  81.374  1.00  0.00     0.013 C 
ATOM     25  C   UNL     1     117.606 113.617  79.913  1.00  0.00     0.013 C 
ATOM     26  C   UNL     1     117.814 115.011  82.507  1.00  0.00     0.001 C 
ATOM     27  C   UNL     1     118.453 113.052  81.050  1.00  0.00     0.001 C 
ATOM     28  C   UNL     1     118.959 114.153  81.977  1.00  0.00     0.000 C 
ENDBRANCH  21  23
ENDBRANCH   8  21
ENDBRANCH   1   7
BRANCH   2  29
ATOM     29  C   UNL     1     107.740 109.967  76.327  1.00  0.00     0.299 C 
BRANCH  29  30
ATOM     30  N   UNL     1     106.868 110.958  77.046  1.00  0.00    -0.327 N 
ATOM     31  C   UNL     1     105.429 110.504  77.111  1.00  0.00     0.291 C 
ATOM     32  C   UNL     1     107.391 111.279  78.427  1.00  0.00     0.291 C 
ATOM     33  C   UNL     1     104.618 111.586  77.804  1.00  0.00     0.221 C 
ATOM     34  C   UNL     1     106.480 112.322  79.051  1.00  0.00     0.221 C 
ATOM     35  O   UNL     1     105.136 111.841  79.111  1.00  0.00    -0.370 OA
ATOM     36  H   UNL     1     106.892 111.832  76.502  1.00  0.00     0.348 HD
ENDBRANCH  29  30
ENDBRANCH   2  29
TORSDOF 5
ENDMDL
MODEL 5
REMARK VINA RESULT:      -9.0      1.796      2.348
REMARK SMILES O=C(C1CCCCC1)N1C[C@@H]2C[C@@H](C1)c1ccc(-c3ccccc3C[NH+]3CCOCC3)c(=O)n1C2
REMARK SMILES IDX 19 1 24 2 20 3 23 4 21 5 22 6 18 7 9 8 10 9 14 10 11 11
REMARK SMILES IDX 13 12 12 13 35 14 15 15 34 16 16 17 32 18 17 19 33 20 2 21
REMARK SMILES IDX 1 22 3 23 4 24 8 25 5 26 7 27 6 28 25 29 26 30 27 31 31 32
REMARK SMILES IDX 28 33 30 34 29 35
REMARK H PARENT 26 36
ROOT
ATOM      1  C   UNL     1     108.475 111.045  76.366  1.00  0.00    -0.004 A 
ATOM      2  C   UNL     1     108.430 110.997  74.971  1.00  0.00     0.014 A 
ATOM      3  C   UNL     1     107.404 110.549  77.111  1.00  0.00     0.009 A 
ATOM      4  C   UNL     1     107.320 110.454  74.325  1.00  0.00     0.010 A 
ATOM      5  C   UNL     1     106.293 110.005  76.466  1.00  0.00     0.001 A 
ATOM      6  C   UNL     1     106.251 109.958  75.073  1.00  0.00     0.001 A 
ENDROOT
BRANCH   1   7
ATOM      7  C   UNL     1     109.633 111.613  77.079  1.00  0.00     0.048 A 
ATOM      8  N   UNL     1     114.822 114.818  79.264  1.00  0.00    -0.341 N 
ATOM      9  C   UNL     1     113.806 115.792  78.666  1.00  0.00     0.125 C 
ATOM     10  C   UNL     1     114.411 113.370  79.500  1.00  0.00     0.129 C 
ATOM     11  C   UNL     1     112.280 115.528  79.017  1.00  0.00     0.029 C 
ATOM     12  C   UNL     1     112.937 113.324  79.186  1.00  0.00     0.056 C 
ATOM     13  C   UNL     1     112.277 114.421  80.036  1.00  0.00     0.019 C 
ATOM     14  C   UNL     1     111.354 115.022  77.831  1.00  0.00     0.131 C 
ATOM     15  C   UNL     1     111.823 112.625  78.512  1.00  0.00     0.026 A 
ATOM     16  N   UNL     1     111.000 113.536  77.808  1.00  0.00    -0.311 N 
ATOM     17  C   UNL     1     111.584 111.311  78.506  1.00  0.00     0.023 A 
ATOM     18  C   UNL     1     109.908 113.097  77.050  1.00  0.00     0.258 A 
ATOM     19  C   UNL     1     110.449 110.805  77.779  1.00  0.00     0.016 A 
ATOM     20  O   UNL     1     109.194 113.844  76.380  1.00  0.00    -0.269 OA
BRANCH   8  21
ATOM     21  C   UNL     1     116.131 115.263  79.463  1.00  0.00     0.225 C 
ATOM     22  O   UNL     1     116.637 116.214  78.864  1.00  0.00    -0.275 OA
BRANCH  21  23
ATOM     23  C   UNL     1     116.934 114.508  80.481  1.00  0.00     0.078 C 
ATOM     24  C   UNL     1     117.538 115.484  81.494  1.00  0.00     0.013 C 
ATOM     25  C   UNL     1     118.017 113.682  79.784  1.00  0.00     0.013 C 
ATOM     26  C   UNL     1     118.442 114.769  82.495  1.00  0.00     0.001 C 
ATOM     27  C   UNL     1     118.919 112.972  80.789  1.00  0.00     0.001 C 
ATOM     28  C   UNL     1     119.521 113.949  81.795  1.00  0.00     0.000 C 
ENDBRANCH  21  23
ENDBRANCH   8  21
ENDBRANCH   1   7
BRANCH   2  29
ATOM     29  C   UNL     1     109.556 111.519  74.138  1.00  0.00     0.299 C 
BRANCH  29  30
ATOM     30  N   UNL     1     110.636 110.503  73.897  1.00  0.00    -0.327 N 
ATOM     31  C   UNL     1     111.022 110.420  72.440  1.00  0.00     0.291 C 
ATOM     32  C   UNL     1     111.852 110.750  74.760  1.00  0.00     0.291 C 
ATOM     33  C   UNL     1     112.076 109.337  72.285  1.00  0.00     0.221 C 
ATOM     34  C   UNL     1     112.862 109.650  74.487  1.00  0.00     0.221 C 
ATOM     35  O   UNL     1     113.213 109.624  73.102  1.00  0.00    -0.370 OA
ATOM     36  H   UNL     1     110.254 109.586  74.168  1.00  0.00     0.348 HD
ENDBRANCH  29  30
ENDBRANCH   2  29
TORSDOF 5
ENDMDL
MODEL 6
REMARK VINA RESULT:      -8.9      1.771      3.622
REMARK SMILES O=C(C1CCCCC1)N1C[C@@H]2C[C@@H](C1)c1ccc(-c3ccccc3C[NH+]3CCOCC3)c(=O)n1C2
REMARK SMILES IDX 19 1 24 2 20 3 23 4 21 5 22 6 18 7 9 8 10 9 14 10 11 11
REMARK SMILES IDX 13 12 12 13 35 14 15 15 34 16 16 17 32 18 17 19 33 20 2 21
REMARK SMILES IDX 1 22 3 23 4 24 8 25 5 26 7 27 6 28 25 29 26 30 27 31 31 32
REMARK SMILES IDX 28 33 30 34 29 35
REMARK H PARENT 26 36
ROOT
ATOM      1  C   UNL     1     107.718 111.051  77.170  1.00  0.00    -0.004 A 
ATOM      2  C   UNL     1     106.461 111.186  77.763  1.00  0.00     0.014 A 
ATOM      3  C   UNL     1     107.860 110.280  76.015  1.00  0.00     0.009 A 
ATOM      4  C   UNL     1     105.352 110.553  77.203  1.00  0.00     0.010 A 
ATOM      5  C   UNL     1     106.751 109.646  75.454  1.00  0.00     0.001 A 
ATOM      6  C   UNL     1     105.497 109.783  76.048  1.00  0.00     0.001 A 
ENDROOT
BRANCH   1   7
ATOM      7  C   UNL     1     108.910 111.707  77.736  1.00  0.00     0.048 A 
ATOM      8  N   UNL     1     114.301 115.019  79.130  1.00  0.00    -0.341 N 
ATOM      9  C   UNL     1     113.360 115.867  78.273  1.00  0.00     0.125 C 
ATOM     10  C   UNL     1     113.787 113.716  79.727  1.00  0.00     0.129 C 
ATOM     11  C   UNL     1     111.818 115.808  78.644  1.00  0.00     0.029 C 
ATOM     12  C   UNL     1     112.315 113.687  79.400  1.00  0.00     0.056 C 
ATOM     13  C   UNL     1     111.729 115.011  79.917  1.00  0.00     0.019 C 
ATOM     14  C   UNL     1     110.865 115.071  77.610  1.00  0.00     0.131 C 
ATOM     15  C   UNL     1     111.158 112.912  78.907  1.00  0.00     0.026 A 
ATOM     16  N   UNL     1     110.406 113.659  77.969  1.00  0.00    -0.311 N 
ATOM     17  C   UNL     1     110.827 111.662  79.239  1.00  0.00     0.023 A 
ATOM     18  C   UNL     1     109.290 113.110  77.326  1.00  0.00     0.258 A 
ATOM     19  C   UNL     1     109.663 111.060  78.644  1.00  0.00     0.016 A 
ATOM     20  O   UNL     1     108.634 113.699  76.467  1.00  0.00    -0.269 OA
BRANCH   8  21
ATOM     21  C   UNL     1     115.637 115.412  79.237  1.00  0.00     0.225 C 
ATOM     22  O   UNL     1     116.138 116.340  78.599  1.00  0.00    -0.275 OA
BRANCH  21  23
ATOM     23  C   UNL     1     116.477 114.629  80.202  1.00  0.00     0.078 C 
ATOM     24  C   UNL     1     117.138 115.578  81.205  1.00  0.00     0.013 C 
ATOM     25  C   UNL     1     117.518 113.805  79.440  1.00  0.00     0.013 C 
ATOM     26  C   UNL     1     118.078 114.834  82.150  1.00  0.00     0.001 C 
ATOM     27  C   UNL     1     118.457 113.066  80.389  1.00  0.00     0.001 C 
ATOM     28  C   UNL     1     119.115 114.017  81.385  1.00  0.00     0.000 C 
ENDBRANCH  21  23
ENDBRANCH   8  21
ENDBRANCH   1   7
BRANCH   2  29
ATOM     29  C   UNL     1     106.268 112.002  79.000  1.00  0.00     0.299 C 
BRANCH  29  30
ATOM     30  N   UNL     1     104.856 111.979  79.512  1.00  0.00    -0.327 N 
ATOM     31  C   UNL     1     103.901 112.678  78.575  1.00  0.00     0.291 C 
ATOM     32  C   UNL     1     104.383 110.575  79.810  1.00  0.00     0.291 C 
ATOM     33  C   UNL     1     102.515 112.651  79.197  1.00  0.00     0.221 C 
ATOM     34  C   UNL     1     102.973 110.656  80.370  1.00  0.00     0.221 C 
ATOM     35  O   UNL     1     102.102 111.305  79.441  1.00  0.00    -0.370 OA
ATOM     36  H   UNL     1     104.849 112.496  80.402  1.00  0.00     0.348 HD
ENDBRANCH  29  30
ENDBRANCH   2  29
TORSDOF 5
ENDMDL
MODEL 7
REMARK VINA RESULT:      -8.8      1.689      2.659
REMARK SMILES O=C(C1CCCCC1)N1C[C@@H]2C[C@@H](C1)c1ccc(-c3ccccc3C[NH+]3CCOCC3)c(=O)n1C2
REMARK SMILES IDX 19 1 24 2 20 3 23 4 21 5 22 6 18 7 9 8 10 9 14 10 11 11
REMARK SMILES IDX 13 12 12 13 35 14 15 15 34 16 16 17 32 18 17 19 33 20 2 21
REMARK SMILES IDX 1 22 3 23 4 24 8 25 5 26 7 27 6 28 25 29 26 30 27 31 31 32
REMARK SMILES IDX 28 33 30 34 29 35
REMARK H PARENT 26 36
ROOT
ATOM      1  C   UNL     1     108.106 112.760  77.889  1.00  0.00    -0.004 A 
ATOM      2  C   UNL     1     107.556 112.818  76.607  1.00  0.00     0.014 A 
ATOM      3  C   UNL     1     107.336 112.284  78.953  1.00  0.00     0.009 A 
ATOM      4  C   UNL     1     106.244 112.401  76.389  1.00  0.00     0.010 A 
ATOM      5  C   UNL     1     106.023 111.866  78.736  1.00  0.00     0.001 A 
ATOM      6  C   UNL     1     105.477 111.925  77.454  1.00  0.00     0.001 A 
ENDROOT
BRANCH   1   7
ATOM      7  C   UNL     1     109.490 113.193  78.152  1.00  0.00     0.048 A 
ATOM      8  N   UNL     1     115.533 114.314  80.203  1.00  0.00    -0.341 N 
ATOM      9  C   UNL     1     115.249 112.811  80.173  1.00  0.00     0.125 C 
ATOM     10  C   UNL     1     114.543 115.268  79.547  1.00  0.00     0.129 C 
ATOM     11  C   UNL     1     114.456 112.265  78.911  1.00  0.00     0.029 C 
ATOM     12  C   UNL     1     113.537 114.379  78.860  1.00  0.00     0.056 C 
ATOM     13  C   UNL     1     114.341 113.426  77.961  1.00  0.00     0.019 C 
ATOM     14  C   UNL     1     112.969 111.770  79.165  1.00  0.00     0.131 C 
ATOM     15  C   UNL     1     112.117 114.085  78.574  1.00  0.00     0.026 A 
ATOM     16  N   UNL     1     111.840 112.706  78.737  1.00  0.00    -0.311 N 
ATOM     17  C   UNL     1     111.167 114.958  78.232  1.00  0.00     0.023 A 
ATOM     18  C   UNL     1     110.546 112.198  78.570  1.00  0.00     0.258 A 
ATOM     19  C   UNL     1     109.827 114.487  78.003  1.00  0.00     0.016 A 
ATOM     20  O   UNL     1     110.244 111.018  78.750  1.00  0.00    -0.269 OA
BRANCH   8  21
ATOM     21  C   UNL     1     116.632 114.768  80.934  1.00  0.00     0.225 C 
ATOM     22  O   UNL     1     116.776 115.931  81.316  1.00  0.00    -0.275 OA
BRANCH  21  23
ATOM     23  C   UNL     1     117.678 113.742  81.255  1.00  0.00     0.078 C 
ATOM     24  C   UNL     1     118.528 114.217  82.436  1.00  0.00     0.013 C 
ATOM     25  C   UNL     1     118.538 113.468  80.020  1.00  0.00     0.013 C 
ATOM     26  C   UNL     1     119.666 113.246  82.739  1.00  0.00     0.001 C 
ATOM     27  C   UNL     1     119.676 112.499  80.328  1.00  0.00     0.001 C 
ATOM     28  C   UNL     1     120.521 112.978  81.504  1.00  0.00     0.000 C 
ENDBRANCH  21  23
ENDBRANCH   8  21
ENDBRANCH   1   7
BRANCH   2  29
ATOM     29  C   UNL     1     108.347 113.321  75.443  1.00  0.00     0.299 C 
BRANCH  29  30
ATOM     30  N   UNL     1     109.002 112.225  74.651  1.00  0.00    -0.327 N 
ATOM     31  C   UNL     1     108.396 112.080  73.276  1.00  0.00     0.291 C 
ATOM     32  C   UNL     1     110.499 112.405  74.561  1.00  0.00     0.291 C 
ATOM     33  C   UNL     1     109.080 110.920  72.572  1.00  0.00     0.221 C 
ATOM     34  C   UNL     1     111.075 111.228  73.792  1.00  0.00     0.221 C 
ATOM     35  O   UNL     1     110.489 111.144  72.492  1.00  0.00    -0.370 OA
ATOM     36  H   UNL     1     108.833 111.345  75.157  1.00  0.00     0.348 HD
ENDBRANCH  29  30
ENDBRANCH   2  29
TORSDOF 5
ENDMDL
MODEL 8
REMARK VINA RESULT:      -8.7      1.612      3.772
REMARK SMILES O=C(C1CCCCC1)N1C[C@@H]2C[C@@H](C1)c1ccc(-c3ccccc3C[NH+]3CCOCC3)c(=O)n1C2
REMARK SMILES IDX 19 1 24 2 20 3 23 4 21 5 22 6 18 7 9 8 10 9 14 10 11 11
REMARK SMILES IDX 13 12 12 13 35 14 15 15 34 16 16 17 32 18 17 19 33 20 2 21
REMARK SMILES IDX 1 22 3 23 4 24 8 25 5 26 7 27 6 28 25 29 26 30 27 31 31 32
REMARK SMILES IDX 28 33 30 34 29 35
REMARK H PARENT 26 36
ROOT
ATOM      1  C   UNL     1     109.219 111.525  74.246  1.00  0.00    -0.004 A 
ATOM      2  C   UNL     1     108.107 110.704  74.441  1.00  0.00     0.014 A 
ATOM      3  C   UNL     1     109.438 112.111  72.998  1.00  0.00     0.009 A 
ATOM      4  C   UNL     1     107.217 110.471  73.393  1.00  0.00     0.010 A 
ATOM      5  C   UNL     1     108.549 111.879  71.949  1.00  0.00     0.001 A 
ATOM      6  C   UNL     1     107.438 111.059  72.146  1.00  0.00     0.001 A 
ENDROOT
BRANCH   1   7
ATOM      7  C   UNL     1     110.178 111.792  75.334  1.00  0.00     0.048 A 
ATOM      8  N   UNL     1     114.144 114.105  79.903  1.00  0.00    -0.341 N 
ATOM      9  C   UNL     1     112.802 114.838  79.941  1.00  0.00     0.125 C 
ATOM     10  C   UNL     1     114.279 112.848  79.054  1.00  0.00     0.129 C 
ATOM     11  C   UNL     1     111.502 113.943  79.774  1.00  0.00     0.029 C 
ATOM     12  C   UNL     1     112.886 112.563  78.551  1.00  0.00     0.056 C 
ATOM     13  C   UNL     1     111.978 112.516  79.790  1.00  0.00     0.019 C 
ATOM     14  C   UNL     1     110.693 114.110  78.417  1.00  0.00     0.131 C 
ATOM     15  C   UNL     1     112.018 112.196  77.412  1.00  0.00     0.026 A 
ATOM     16  N   UNL     1     110.868 113.019  77.362  1.00  0.00    -0.311 N 
ATOM     17  C   UNL     1     112.244 111.246  76.502  1.00  0.00     0.023 A 
ATOM     18  C   UNL     1     109.923 112.891  76.337  1.00  0.00     0.258 A 
ATOM     19  C   UNL     1     111.285 111.038  75.449  1.00  0.00     0.016 A 
ATOM     20  O   UNL     1     108.935 113.615  76.221  1.00  0.00    -0.269 OA
BRANCH   8  21
ATOM     21  C   UNL     1     115.234 114.682  80.558  1.00  0.00     0.225 C 
ATOM     22  O   UNL     1     115.138 115.454  81.515  1.00  0.00    -0.275 OA
BRANCH  21  23
ATOM     23  C   UNL     1     116.590 114.311  80.032  1.00  0.00     0.078 C 
ATOM     24  C   UNL     1     117.266 113.325  80.987  1.00  0.00     0.013 C 
ATOM     25  C   UNL     1     117.436 115.570  79.834  1.00  0.00     0.013 C 
ATOM     26  C   UNL     1     118.687 112.991  80.540  1.00  0.00     0.001 C 
ATOM     27  C   UNL     1     118.856 115.231  79.390  1.00  0.00     0.001 C 
ATOM     28  C   UNL     1     119.527 114.249  80.346  1.00  0.00     0.000 C 
ENDBRANCH  21  23
ENDBRANCH   8  21
ENDBRANCH   1   7
BRANCH   2  29
ATOM     29  C   UNL     1     107.838 110.059  75.762  1.00  0.00     0.299 C 
BRANCH  29  30
ATOM     30  N   UNL     1     107.033 110.921  76.691  1.00  0.00    -0.327 N 
ATOM     31  C   UNL     1     105.617 110.420  76.848  1.00  0.00     0.291 C 
ATOM     32  C   UNL     1     107.697 111.079  78.039  1.00  0.00     0.291 C 
ATOM     33  C   UNL     1     104.868 111.379  77.757  1.00  0.00     0.221 C 
ATOM     34  C   UNL     1     106.841 112.005  78.887  1.00  0.00     0.221 C 
ATOM     35  O   UNL     1     105.520 111.479  79.025  1.00  0.00    -0.370 OA
ATOM     36  H   UNL     1     106.983 111.858  76.267  1.00  0.00     0.348 HD
ENDBRANCH  29  30
ENDBRANCH   2  29
TORSDOF 5
ENDMDL
MODEL 9
REMARK VINA RESULT:      -7.6      1.930      4.325
REMARK SMILES O=C(C1CCCCC1)N1C[C@@H]2C[C@@H](C1)c1ccc(-c3ccccc3C[NH+]3CCOCC3)c(=O)n1C2
REMARK SMILES IDX 19 1 24 2 20 3 23 4 21 5 22 6 18 7 9 8 10 9 14 10 11 11
REMARK SMILES IDX 13 12 12 13 35 14 15 15 34 16 16 17 32 18 17 19 33 20 2 21
REMARK SMILES IDX 1 22 3 23 4 24 8 25 5 26 7 27 6 28 25 29 26 30 27 31 31 32
REMARK SMILES IDX 28 33 30 34 29 35
REMARK H PARENT 26 36
ROOT
ATOM      1  C   UNL     1     108.880 112.629  72.604  1.00  0.00    -0.004 A 
ATOM      2  C   UNL     1     107.713 111.888  72.409  1.00  0.00     0.014 A 
ATOM      3  C   UNL     1     109.264 113.578  71.655  1.00  0.00     0.009 A 
ATOM      4  C   UNL     1     106.933 112.095  71.272  1.00  0.00     0.010 A 
ATOM      5  C   UNL     1     108.485 113.787  70.517  1.00  0.00     0.001 A 
ATOM      6  C   UNL     1     107.319 113.046  70.326  1.00  0.00     0.001 A 
ENDROOT
BRANCH   1   7
ATOM      7  C   UNL     1     109.726 112.433  73.795  1.00  0.00     0.048 A 
ATOM      8  N   UNL     1     113.505 112.759  79.047  1.00  0.00    -0.341 N 
ATOM      9  C   UNL     1     112.383 113.795  79.131  1.00  0.00     0.125 C 
ATOM     10  C   UNL     1     113.444 111.688  77.966  1.00  0.00     0.129 C 
ATOM     11  C   UNL     1     110.940 113.315  78.678  1.00  0.00     0.029 C 
ATOM     12  C   UNL     1     112.101 111.871  77.306  1.00  0.00     0.056 C 
ATOM     13  C   UNL     1     111.055 111.836  78.431  1.00  0.00     0.019 C 
ATOM     14  C   UNL     1     110.376 113.932  77.327  1.00  0.00     0.131 C 
ATOM     15  C   UNL     1     111.325 111.957  76.051  1.00  0.00     0.026 A 
ATOM     16  N   UNL     1     110.421 113.046  76.084  1.00  0.00    -0.311 N 
ATOM     17  C   UNL     1     111.433 111.165  74.982  1.00  0.00     0.023 A 
ATOM     18  C   UNL     1     109.613 113.357  74.984  1.00  0.00     0.258 A 
ATOM     19  C   UNL     1     110.597 111.409  73.836  1.00  0.00     0.016 A 
ATOM     20  O   UNL     1     108.850 114.322  74.944  1.00  0.00    -0.269 OA
BRANCH   8  21
ATOM     21  C   UNL     1     114.607 112.903  79.892  1.00  0.00     0.225 C 
ATOM     22  O   UNL     1     115.037 112.010  80.626  1.00  0.00    -0.275 OA
BRANCH  21  23
ATOM     23  C   UNL     1     115.280 114.243  79.873  1.00  0.00     0.078 C 
ATOM     24  C   UNL     1     115.540 114.674  78.427  1.00  0.00     0.013 C 
ATOM     25  C   UNL     1     116.577 114.189  80.683  1.00  0.00     0.013 C 
ATOM     26  C   UNL     1     116.309 115.991  78.360  1.00  0.00     0.001 C 
ATOM     27  C   UNL     1     117.343 115.507  80.610  1.00  0.00     0.001 C 
ATOM     28  C   UNL     1     117.601 115.930  79.167  1.00  0.00     0.000 C 
ENDBRANCH  21  23
ENDBRANCH   8  21
ENDBRANCH   1   7
BRANCH   2  29
ATOM     29  C   UNL     1     107.268 110.862  73.402  1.00  0.00     0.299 C 
BRANCH  29  30
ATOM     30  N   UNL     1     107.358 111.335  74.825  1.00  0.00    -0.327 N 
ATOM     31  C   UNL     1     106.124 112.095  75.249  1.00  0.00     0.291 C 
ATOM     32  C   UNL     1     107.645 110.203  75.783  1.00  0.00     0.291 C 
ATOM     33  C   UNL     1     106.327 112.577  76.676  1.00  0.00     0.221 C 
ATOM     34  C   UNL     1     107.771 110.782  77.182  1.00  0.00     0.221 C 
ATOM     35  O   UNL     1     106.574 111.472  77.547  1.00  0.00    -0.370 OA
ATOM     36  H   UNL     1     108.154 111.985  74.877  1.00  0.00     0.348 HD
ENDBRANCH  29  30
ENDBRANCH   2  29
TORSDOF 5
ENDMDL
MODEL 10
REMARK VINA RESULT:      -7.6      1.923      2.963
REMARK SMILES O=C(C1CCCCC1)N1C[C@@H]2C[C@@H](C1)c1ccc(-c3ccccc3C[NH+]3CCOCC3)c(=O)n1C2
REMARK SMILES IDX 19 1 24 2 20 3 23 4 21 5 22 6 18 7 9 8 10 9 14 10 11 11
REMARK SMILES IDX 13 12 12 13 35 14 15 15 34 16 16 17 32 18 17 19 33 20 2 21
REMARK SMILES IDX 1 22 3 23 4 24 8 25 5 26 7 27 6 28 25 29 26 30 27 31 31 32
REMARK SMILES IDX 28 33 30 34 29 35
REMARK H PARENT 26 36
ROOT
ATOM      1  C   UNL     1     108.570 111.095  77.045  1.00  0.00    -0.004 A 
ATOM      2  C   UNL     1     107.488 111.973  77.127  1.00  0.00     0.014 A 
ATOM      3  C   UNL     1     108.356 109.762  76.690  1.00  0.00     0.009 A 
ATOM      4  C   UNL     1     106.197 111.520  76.854  1.00  0.00     0.010 A 
ATOM      5  C   UNL     1     107.066 109.307  76.417  1.00  0.00     0.001 A 
ATOM      6  C   UNL     1     105.986 110.187  76.498  1.00  0.00     0.001 A 
ENDROOT
BRANCH   1   7
ATOM      7  C   UNL     1     109.946 111.543  77.327  1.00  0.00     0.048 A 
ATOM      8  N   UNL     1     115.468 114.468  79.036  1.00  0.00    -0.341 N 
ATOM      9  C   UNL     1     114.440 114.566  80.165  1.00  0.00     0.125 C 
ATOM     10  C   UNL     1     115.190 113.542  77.859  1.00  0.00     0.129 C 
ATOM     11  C   UNL     1     113.593 113.258  80.467  1.00  0.00     0.029 C 
ATOM     12  C   UNL     1     113.931 112.800  78.232  1.00  0.00     0.056 C 
ATOM     13  C   UNL     1     114.189 112.173  79.612  1.00  0.00     0.019 C 
ATOM     14  C   UNL     1     112.052 113.306  80.085  1.00  0.00     0.131 C 
ATOM     15  C   UNL     1     112.600 112.308  77.819  1.00  0.00     0.026 A 
ATOM     16  N   UNL     1     111.626 112.581  78.810  1.00  0.00    -0.311 N 
ATOM     17  C   UNL     1     112.286 111.705  76.670  1.00  0.00     0.023 A 
ATOM     18  C   UNL     1     110.279 112.251  78.618  1.00  0.00     0.258 A 
ATOM     19  C   UNL     1     110.924 111.303  76.436  1.00  0.00     0.016 A 
ATOM     20  O   UNL     1     109.387 112.513  79.426  1.00  0.00    -0.269 OA
BRANCH   8  21
ATOM     21  C   UNL     1     116.572 115.322  79.068  1.00  0.00     0.225 C 
ATOM     22  O   UNL     1     116.622 116.410  78.491  1.00  0.00    -0.275 OA
BRANCH  21  23
ATOM     23  C   UNL     1     117.749 114.845  79.867  1.00  0.00     0.078 C 
ATOM     24  C   UNL     1     117.862 113.321  79.770  1.00  0.00     0.013 C 
ATOM     25  C   UNL     1     117.616 115.305  81.320  1.00  0.00     0.013 C 
ATOM     26  C   UNL     1     118.990 112.782  80.644  1.00  0.00     0.001 C 
ATOM     27  C   UNL     1     118.745 114.761  82.190  1.00  0.00     0.001 C 
ATOM     28  C   UNL     1     118.851 113.242  82.091  1.00  0.00     0.000 C 
ENDBRANCH  21  23
ENDBRANCH   8  21
ENDBRANCH   1   7
BRANCH   2  29
ATOM     29  C   UNL     1     107.675 113.407  77.504  1.00  0.00     0.299 C 
BRANCH  29  30
ATOM     30  N   UNL     1     108.636 114.135  76.608  1.00  0.00    -0.327 N 
ATOM     31  C   UNL     1     108.319 113.925  75.146  1.00  0.00     0.291 C 
ATOM     32  C   UNL     1     108.711 115.609  76.933  1.00  0.00     0.291 C 
ATOM     33  C   UNL     1     109.368 114.651  74.321  1.00  0.00     0.221 C 
ATOM     34  C   UNL     1     109.740 116.248  76.016  1.00  0.00     0.221 C 
ATOM     35  O   UNL     1     109.388 116.042  74.647  1.00  0.00    -0.370 OA
ATOM     36  H   UNL     1     109.570 113.739  76.781  1.00  0.00     0.348 HD
ENDBRANCH  29  30
ENDBRANCH   2  29
TORSDOF 5
ENDMDL
MODEL 11
REMARK VINA RESULT:      -7.5      4.394      9.102
REMARK SMILES O=C(C1CCCCC1)N1C[C@@H]2C[C@@H](C1)c1ccc(-c3ccccc3C[NH+]3CCOCC3)c(=O)n1C2
REMARK SMILES IDX 19 1 24 2 20 3 23 4 21 5 22 6 18 7 9 8 10 9 14 10 11 11
REMARK SMILES IDX 13 12 12 13 35 14 15 15 34 16 16 17 32 18 17 19 33 20 2 21
REMARK SMILES IDX 1 22 3 23 4 24 8 25 5 26 7 27 6 28 25 29 26 30 27 31 31 32
REMARK SMILES IDX 28 33 30 34 29 35
REMARK H PARENT 26 36
ROOT
ATOM      1  C   UNL     1     115.946 115.819  79.266  1.00  0.00    -0.004 A 
ATOM      2  C   UNL     1     114.615 115.422  79.128  1.00  0.00     0.014 A 
ATOM      3  C   UNL     1     116.482 116.765  78.390  1.00  0.00     0.009 A 
ATOM      4  C   UNL     1     113.823 115.968  78.118  1.00  0.00     0.010 A 
ATOM      5  C   UNL     1     115.690 117.313  77.381  1.00  0.00     0.001 A 
ATOM      6  C   UNL     1     114.361 116.914  77.245  1.00  0.00     0.001 A 
ENDROOT
BRANCH   1   7
ATOM      7  C   UNL     1     116.809 115.261  80.323  1.00  0.00     0.048 A 
ATOM      8  N   UNL     1     120.334 111.755  84.477  1.00  0.00    -0.341 N 
ATOM      9  C   UNL     1     120.547 111.259  83.046  1.00  0.00     0.125 C 
ATOM     10  C   UNL     1     119.597 113.069  84.704  1.00  0.00     0.129 C 
ATOM     11  C   UNL     1     120.706 112.373  81.927  1.00  0.00     0.029 C 
ATOM     12  C   UNL     1     119.387 113.645  83.327  1.00  0.00     0.056 C 
ATOM     13  C   UNL     1     120.770 113.687  82.657  1.00  0.00     0.019 C 
ATOM     14  C   UNL     1     119.512 112.518  80.891  1.00  0.00     0.131 C 
ATOM     15  C   UNL     1     118.467 114.293  82.369  1.00  0.00     0.026 A 
ATOM     16  N   UNL     1     118.551 113.688  81.093  1.00  0.00    -0.311 N 
ATOM     17  C   UNL     1     117.625 115.299  82.617  1.00  0.00     0.023 A 
ATOM     18  C   UNL     1     117.733 114.102  80.034  1.00  0.00     0.258 A 
ATOM     19  C   UNL     1     116.791 115.797  81.556  1.00  0.00     0.016 A 
ATOM     20  O   UNL     1     117.731 113.574  78.921  1.00  0.00    -0.269 OA
BRANCH   8  21
ATOM     21  C   UNL     1     120.720 110.925  85.532  1.00  0.00     0.225 C 
ATOM     22  O   UNL     1     121.082 109.755  85.394  1.00  0.00    -0.275 OA
BRANCH  21  23
ATOM     23  C   UNL     1     120.677 111.538  86.900  1.00  0.00     0.078 C 
ATOM     24  C   UNL     1     121.070 110.495  87.950  1.00  0.00     0.013 C 
ATOM     25  C   UNL     1     119.285 112.111  87.173  1.00  0.00     0.013 C 
ATOM     26  C   UNL     1     120.949 111.048  89.367  1.00  0.00     0.001 C 
ATOM     27  C   UNL     1     119.170 112.661  88.592  1.00  0.00     0.001 C 
ATOM     28  C   UNL     1     119.559 111.616  89.635  1.00  0.00     0.000 C 
ENDBRANCH  21  23
ENDBRANCH   8  21
ENDBRANCH   1   7
BRANCH   2  29
ATOM     29  C   UNL     1     114.005 114.411  80.045  1.00  0.00     0.299 C 
BRANCH  29  30
ATOM     30  N   UNL     1     112.677 113.899  79.565  1.00  0.00    -0.327 N 
ATOM     31  C   UNL     1     112.577 112.396  79.669  1.00  0.00     0.291 C 
ATOM     32  C   UNL     1     111.520 114.563  80.276  1.00  0.00     0.291 C 
ATOM     33  C   UNL     1     111.229 111.968  79.115  1.00  0.00     0.221 C 
ATOM     34  C   UNL     1     110.227 114.024  79.690  1.00  0.00     0.221 C 
ATOM     35  O   UNL     1     110.168 112.603  79.830  1.00  0.00    -0.370 OA
ATOM     36  H   UNL     1     112.600 114.146  78.568  1.00  0.00     0.348 HD
ENDBRANCH  29  30
ENDBRANCH   2  29
TORSDOF 5
ENDMDL
MODEL 12
REMARK VINA RESULT:      -7.3      2.117      9.273
REMARK SMILES O=C(C1CCCCC1)N1C[C@@H]2C[C@@H](C1)c1ccc(-c3ccccc3C[NH+]3CCOCC3)c(=O)n1C2
REMARK SMILES IDX 19 1 24 2 20 3 23 4 21 5 22 6 18 7 9 8 10 9 14 10 11 11
REMARK SMILES IDX 13 12 12 13 35 14 15 15 34 16 16 17 32 18 17 19 33 20 2 21
REMARK SMILES IDX 1 22 3 23 4 24 8 25 5 26 7 27 6 28 25 29 26 30 27 31 31 32
REMARK SMILES IDX 28 33 30 34 29 35
REMARK H PARENT 26 36
ROOT
ATOM      1  C   UNL     1     115.698 115.059  80.306  1.00  0.00    -0.004 A 
ATOM      2  C   UNL     1     116.920 115.098  79.632  1.00  0.00     0.014 A 
ATOM      3  C   UNL     1     115.653 115.323  81.677  1.00  0.00     0.009 A 
ATOM      4  C   UNL     1     118.092 115.400  80.325  1.00  0.00     0.010 A 
ATOM      5  C   UNL     1     116.825 115.625  82.371  1.00  0.00     0.001 A 
ATOM      6  C   UNL     1     118.044 115.664  81.695  1.00  0.00     0.001 A 
ENDROOT
BRANCH   1   7
ATOM      7  C   UNL     1     114.441 114.744  79.603  1.00  0.00     0.048 A 
ATOM      8  N   UNL     1     109.504 112.394  76.129  1.00  0.00    -0.341 N 
ATOM      9  C   UNL     1     110.174 111.275  76.929  1.00  0.00     0.125 C 
ATOM     10  C   UNL     1     109.872 113.841  76.427  1.00  0.00     0.129 C 
ATOM     11  C   UNL     1     110.576 111.618  78.426  1.00  0.00     0.029 C 
ATOM     12  C   UNL     1     110.769 113.777  77.638  1.00  0.00     0.056 C 
ATOM     13  C   UNL     1     110.002 112.980  78.706  1.00  0.00     0.019 C 
ATOM     14  C   UNL     1     112.129 111.735  78.736  1.00  0.00     0.131 C 
ATOM     15  C   UNL     1     112.009 114.231  78.301  1.00  0.00     0.026 A 
ATOM     16  N   UNL     1     112.708 113.142  78.875  1.00  0.00    -0.311 N 
ATOM     17  C   UNL     1     112.479 115.479  78.362  1.00  0.00     0.023 A 
ATOM     18  C   UNL     1     113.940 113.322  79.515  1.00  0.00     0.258 A 
ATOM     19  C   UNL     1     113.719 115.732  79.046  1.00  0.00     0.016 A 
ATOM     20  O   UNL     1     114.610 112.402  79.985  1.00  0.00    -0.269 OA
BRANCH   8  21
ATOM     21  C   UNL     1     108.664 112.042  75.070  1.00  0.00     0.225 C 
ATOM     22  O   UNL     1     109.016 112.010  73.889  1.00  0.00    -0.275 OA
BRANCH  21  23
ATOM     23  C   UNL     1     107.254 111.686  75.439  1.00  0.00     0.078 C 
ATOM     24  C   UNL     1     106.738 112.649  76.511  1.00  0.00     0.013 C 
ATOM     25  C   UNL     1     107.189 110.232  75.913  1.00  0.00     0.013 C 
ATOM     26  C   UNL     1     105.339 112.267  76.985  1.00  0.00     0.001 C 
ATOM     27  C   UNL     1     105.789 109.857  76.388  1.00  0.00     0.001 C 
ATOM     28  C   UNL     1     105.280 110.818  77.459  1.00  0.00     0.000 C 
ENDBRANCH  21  23
ENDBRANCH   8  21
ENDBRANCH   1   7
BRANCH   2  29
ATOM     29  C   UNL     1     117.009 114.822  78.166  1.00  0.00     0.299 C 
BRANCH  29  30
ATOM     30  N   UNL     1     116.942 113.359  77.833  1.00  0.00    -0.327 N 
ATOM     31  C   UNL     1     116.035 113.085  76.657  1.00  0.00     0.291 C 
ATOM     32  C   UNL     1     118.312 112.765  77.602  1.00  0.00     0.291 C 
ATOM     33  C   UNL     1     115.988 111.584  76.429  1.00  0.00     0.221 C 
ATOM     34  C   UNL     1     118.148 111.280  77.326  1.00  0.00     0.221 C 
ATOM     35  O   UNL     1     117.301 111.071  76.194  1.00  0.00    -0.370 OA
ATOM     36  H   UNL     1     116.539 112.881  78.651  1.00  0.00     0.348 HD
ENDBRANCH  29  30
ENDBRANCH   2  29
TORSDOF 5
ENDMDL
MODEL 13
REMARK VINA RESULT:      -7.2      2.231      9.178
REMARK SMILES O=C(C1CCCCC1)N1C[C@@H]2C[C@@H](C1)c1ccc(-c3ccccc3C[NH+]3CCOCC3)c(=O)n1C2
REMARK SMILES IDX 19 1 24 2 20 3 23 4 21 5 22 6 18 7 9 8 10 9 14 10 11 11
REMARK SMILES IDX 13 12 12 13 35 14 15 15 34 16 16 17 32 18 17 19 33 20 2 21
REMARK SMILES IDX 1 22 3 23 4 24 8 25 5 26 7 27 6 28 25 29 26 30 27 31 31 32
REMARK SMILES IDX 28 33 30 34 29 35
REMARK H PARENT 26 36
ROOT
ATOM      1  C   UNL     1     115.656 114.983  80.209  1.00  0.00    -0.004 A 
ATOM      2  C   UNL     1     116.814 115.005  79.429  1.00  0.00     0.014 A 
ATOM      3  C   UNL     1     115.735 115.264  81.574  1.00  0.00     0.009 A 
ATOM      4  C   UNL     1     118.044 115.307  80.011  1.00  0.00     0.010 A 
ATOM      5  C   UNL     1     116.965 115.567  82.158  1.00  0.00     0.001 A 
ATOM      6  C   UNL     1     118.120 115.589  81.376  1.00  0.00     0.001 A 
ENDROOT
BRANCH   1   7
ATOM      7  C   UNL     1     114.340 114.668  79.623  1.00  0.00     0.048 A 
ATOM      8  N   UNL     1     109.104 112.317  76.619  1.00  0.00    -0.341 N 
ATOM      9  C   UNL     1     109.842 111.200  77.357  1.00  0.00     0.125 C 
ATOM     10  C   UNL     1     109.500 113.765  76.879  1.00  0.00     0.129 C 
ATOM     11  C   UNL     1     110.380 111.546  78.810  1.00  0.00     0.029 C 
ATOM     12  C   UNL     1     110.503 113.702  78.003  1.00  0.00     0.056 C 
ATOM     13  C   UNL     1     109.836 112.910  79.138  1.00  0.00     0.019 C 
ATOM     14  C   UNL     1     111.955 111.661  78.978  1.00  0.00     0.131 C 
ATOM     15  C   UNL     1     111.799 114.156  78.549  1.00  0.00     0.026 A 
ATOM     16  N   UNL     1     112.546 113.067  79.060  1.00  0.00    -0.311 N 
ATOM     17  C   UNL     1     112.274 115.403  78.564  1.00  0.00     0.023 A 
ATOM     18  C   UNL     1     113.831 113.247  79.585  1.00  0.00     0.258 A 
ATOM     19  C   UNL     1     113.572 115.656  79.131  1.00  0.00     0.016 A 
ATOM     20  O   UNL     1     114.540 112.327  79.994  1.00  0.00    -0.269 OA
BRANCH   8  21
ATOM     21  C   UNL     1     108.171 111.964  75.641  1.00  0.00     0.225 C 
ATOM     22  O   UNL     1     106.972 112.245  75.696  1.00  0.00    -0.275 OA
BRANCH  21  23
ATOM     23  C   UNL     1     108.706 111.197  74.468  1.00  0.00     0.078 C 
ATOM     24  C   UNL     1     109.855 111.973  73.819  1.00  0.00     0.013 C 
ATOM     25  C   UNL     1     107.582 110.921  73.468  1.00  0.00     0.013 C 
ATOM     26  C   UNL     1     110.369 111.275  72.563  1.00  0.00     0.001 C 
ATOM     27  C   UNL     1     108.101 110.224  72.214  1.00  0.00     0.001 C 
ATOM     28  C   UNL     1     109.245 111.003  71.569  1.00  0.00     0.000 C 
ENDBRANCH  21  23
ENDBRANCH   8  21
ENDBRANCH   1   7
BRANCH   2  29
ATOM     29  C   UNL     1     116.771 114.709  77.965  1.00  0.00     0.299 C 
BRANCH  29  30
ATOM     30  N   UNL     1     116.824 113.241  77.654  1.00  0.00    -0.327 N 
ATOM     31  C   UNL     1     115.973 112.883  76.459  1.00  0.00     0.291 C 
ATOM     32  C   UNL     1     118.240 112.748  77.469  1.00  0.00     0.291 C 
ATOM     33  C   UNL     1     116.045 111.379  76.254  1.00  0.00     0.221 C 
ATOM     34  C   UNL     1     118.196 111.252  77.213  1.00  0.00     0.221 C 
ATOM     35  O   UNL     1     117.399 110.964  76.063  1.00  0.00    -0.370 OA
ATOM     36  H   UNL     1     116.435 112.745  78.468  1.00  0.00     0.348 HD
ENDBRANCH  29  30
ENDBRANCH   2  29
TORSDOF 5
ENDMDL
