MODEL 1
REMARK VINA RESULT:     -11.3      0.000      0.000
REMARK SMILES CN1CCN(c2cccc3c2=N/C(=C2\NNc4cc(C5=CC6=CC=CN[C@@H]6C=C5)ccc42)N=3)CC1
REMARK SMILES IDX 12 1 33 2 15 3 16 4 6 5 11 6 7 7 10 8 14 9 13 10 32 11 17 12
REMARK SMILES IDX 8 13 9 14 19 15 18 16 31 17 30 18 5 21 4 22 34 23 3 24 35 25
REMARK SMILES IDX 2 26 1 27 20 28 21 29 29 30 22 31 28 32 27 33 23 34 26 35
REMARK SMILES IDX 24 36 25 37
REMARK H PARENT 15 19 16 20 26 38
ROOT
ATOM      1  N   UNL     1     109.467 111.855  76.665  1.00  0.00    -0.223 NA
ATOM      2  N   UNL     1     111.636 111.850  75.823  1.00  0.00    -0.225 NA
ATOM      3  N   UNL     1     110.576 112.801  79.251  1.00  0.00    -0.296 N 
ATOM      4  N   UNL     1     111.362 113.266  80.246  1.00  0.00    -0.300 N 
ATOM      5  C   UNL     1     108.313 111.071  74.570  1.00  0.00     0.065 A 
ATOM      6  C   UNL     1     109.438 111.471  75.435  1.00  0.00     0.115 A 
ATOM      7  C   UNL     1     108.642 110.722  73.315  1.00  0.00     0.028 A 
ATOM      8  C   UNL     1     110.823 111.469  74.901  1.00  0.00     0.093 A 
ATOM      9  C   UNL     1     111.270 112.509  78.092  1.00  0.00     0.108 C 
ATOM     10  C   UNL     1     110.810 112.088  76.907  1.00  0.00     0.179 C 
ATOM     11  C   UNL     1     112.686 112.780  78.428  1.00  0.00     0.028 A 
ATOM     12  C   UNL     1     112.682 113.207  79.781  1.00  0.00     0.064 A 
ATOM     13  C   UNL     1     109.996 110.720  72.795  1.00  0.00     0.005 A 
ATOM     14  C   UNL     1     111.069 111.069  73.516  1.00  0.00     0.031 A 
ATOM     15  C   UNL     1     115.040 113.478  79.706  1.00  0.00    -0.016 A 
ATOM     16  C   UNL     1     113.845 113.575  80.425  1.00  0.00     0.037 A 
ATOM     17  C   UNL     1     113.866 112.684  77.715  1.00  0.00     0.013 A 
ATOM     18  C   UNL     1     115.050 113.035  78.370  1.00  0.00     0.009 A 
ATOM     19  H   UNL     1     109.566 112.793  79.298  1.00  0.00     0.188 HD
ATOM     20  H   UNL     1     111.119 113.188  81.223  1.00  0.00     0.188 HD
ENDROOT
BRANCH   5  21
ATOM     21  N   UNL     1     107.062 111.094  75.115  1.00  0.00    -0.367 N 
ATOM     22  C   UNL     1     106.298 112.331  75.264  1.00  0.00     0.132 C 
ATOM     23  C   UNL     1     106.317 109.869  75.407  1.00  0.00     0.132 C 
ATOM     24  C   UNL     1     105.641 112.380  76.644  1.00  0.00     0.105 C 
ATOM     25  C   UNL     1     105.659 109.971  76.784  1.00  0.00     0.105 C 
ATOM     26  N   UNL     1     104.826 111.179  76.881  1.00  0.00    -0.303 NA
ATOM     27  C   UNL     1     104.174 111.250  78.188  1.00  0.00     0.105 C 
ENDBRANCH   5  21
BRANCH  15  28
ATOM     28  C   UNL     1     116.312 113.850  80.357  1.00  0.00    -0.018 C 
ATOM     29  C   UNL     1     117.403 113.098  80.095  1.00  0.00     0.015 C 
ATOM     30  C   UNL     1     116.399 114.943  81.323  1.00  0.00     0.007 C 
ATOM     31  C   UNL     1     118.683 113.372  80.728  1.00  0.00    -0.021 C 
ATOM     32  C   UNL     1     117.581 115.382  81.785  1.00  0.00     0.003 C 
ATOM     33  C   UNL     1     118.871 114.781  81.298  1.00  0.00     0.132 C 
ATOM     34  C   UNL     1     119.633 112.425  80.873  1.00  0.00     0.008 C 
ATOM     35  N   UNL     1     119.870 114.764  82.362  1.00  0.00    -0.381 N 
ATOM     36  C   UNL     1     120.814 112.688  81.672  1.00  0.00     0.018 C 
ATOM     37  C   UNL     1     120.858 113.809  82.406  1.00  0.00     0.078 C 
ATOM     38  H   UNL     1     120.017 115.601  82.917  1.00  0.00     0.160 HD
ENDBRANCH  15  28
TORSDOF 2
ENDMDL
MODEL 2
REMARK VINA RESULT:     -10.8      2.543     11.348
REMARK SMILES CN1CCN(c2cccc3c2=N/C(=C2\NNc4cc(C5=CC6=CC=CN[C@@H]6C=C5)ccc42)N=3)CC1
REMARK SMILES IDX 12 1 33 2 15 3 16 4 6 5 11 6 7 7 10 8 14 9 13 10 32 11 17 12
REMARK SMILES IDX 8 13 9 14 19 15 18 16 31 17 30 18 5 21 4 22 34 23 3 24 35 25
REMARK SMILES IDX 2 26 1 27 20 28 21 29 29 30 22 31 28 32 27 33 23 34 26 35
REMARK SMILES IDX 24 36 25 37
REMARK H PARENT 15 19 16 20 26 38
ROOT
ATOM      1  N   UNL     1     114.690 113.519  80.157  1.00  0.00    -0.223 NA
ATOM      2  N   UNL     1     113.242 114.504  78.624  1.00  0.00    -0.225 NA
ATOM      3  N   UNL     1     112.527 111.594  80.816  1.00  0.00    -0.296 N 
ATOM      4  N   UNL     1     111.395 110.858  80.849  1.00  0.00    -0.300 N 
ATOM      5  C   UNL     1     116.659 115.031  79.749  1.00  0.00     0.065 A 
ATOM      6  C   UNL     1     115.294 114.500  79.580  1.00  0.00     0.115 A 
ATOM      7  C   UNL     1     116.971 116.083  78.973  1.00  0.00     0.028 A 
ATOM      8  C   UNL     1     114.369 115.126  78.603  1.00  0.00     0.093 A 
ATOM      9  C   UNL     1     112.482 112.634  79.906  1.00  0.00     0.108 C 
ATOM     10  C   UNL     1     113.433 113.517  79.576  1.00  0.00     0.179 C 
ATOM     11  C   UNL     1     111.119 112.568  79.333  1.00  0.00     0.028 A 
ATOM     12  C   UNL     1     110.486 111.476  79.981  1.00  0.00     0.064 A 
ATOM     13  C   UNL     1     116.066 116.694  78.020  1.00  0.00     0.005 A 
ATOM     14  C   UNL     1     114.813 116.271  77.810  1.00  0.00     0.031 A 
ATOM     15  C   UNL     1     108.517 111.861  78.710  1.00  0.00    -0.016 A 
ATOM     16  C   UNL     1     109.195 111.102  79.667  1.00  0.00     0.037 A 
ATOM     17  C   UNL     1     110.451 113.319  78.385  1.00  0.00     0.013 A 
ATOM     18  C   UNL     1     109.136 112.957  78.079  1.00  0.00     0.009 A 
ATOM     19  H   UNL     1     113.373 111.335  81.306  1.00  0.00     0.188 HD
ATOM     20  H   UNL     1     111.109 110.322  81.654  1.00  0.00     0.188 HD
ENDROOT
BRANCH   5  21
ATOM     21  N   UNL     1     117.466 114.415  80.660  1.00  0.00    -0.367 N 
ATOM     22  C   UNL     1     117.672 114.948  82.006  1.00  0.00     0.132 C 
ATOM     23  C   UNL     1     118.026 113.083  80.432  1.00  0.00     0.132 C 
ATOM     24  C   UNL     1     119.155 114.882  82.376  1.00  0.00     0.105 C 
ATOM     25  C   UNL     1     119.501 113.056  80.836  1.00  0.00     0.105 C 
ATOM     26  N   UNL     1     119.674 113.515  82.222  1.00  0.00    -0.303 NA
ATOM     27  C   UNL     1     121.082 113.453  82.612  1.00  0.00     0.105 C 
ENDBRANCH   5  21
BRANCH  15  28
ATOM     28  C   UNL     1     107.130 111.505  78.349  1.00  0.00    -0.018 C 
ATOM     29  C   UNL     1     106.140 111.879  79.189  1.00  0.00     0.015 C 
ATOM     30  C   UNL     1     106.817 110.702  77.170  1.00  0.00     0.007 C 
ATOM     31  C   UNL     1     104.752 111.532  78.927  1.00  0.00    -0.021 C 
ATOM     32  C   UNL     1     105.551 110.522  76.757  1.00  0.00     0.003 C 
ATOM     33  C   UNL     1     104.403 111.169  77.481  1.00  0.00     0.132 C 
ATOM     34  C   UNL     1     103.830 111.460  79.910  1.00  0.00     0.008 C 
ATOM     35  N   UNL     1     103.220 110.315  77.448  1.00  0.00    -0.381 N 
ATOM     36  C   UNL     1     102.509 110.930  79.637  1.00  0.00     0.018 C 
ATOM     37  C   UNL     1     102.280 110.350  78.451  1.00  0.00     0.078 C 
ATOM     38  H   UNL     1     102.936 109.896  76.569  1.00  0.00     0.160 HD
ENDBRANCH  15  28
TORSDOF 2
ENDMDL
MODEL 3
REMARK VINA RESULT:     -10.0      2.627     11.123
REMARK SMILES CN1CCN(c2cccc3c2=N/C(=C2\NNc4cc(C5=CC6=CC=CN[C@@H]6C=C5)ccc42)N=3)CC1
REMARK SMILES IDX 12 1 33 2 15 3 16 4 6 5 11 6 7 7 10 8 14 9 13 10 32 11 17 12
REMARK SMILES IDX 8 13 9 14 19 15 18 16 31 17 30 18 5 21 4 22 34 23 3 24 35 25
REMARK SMILES IDX 2 26 1 27 20 28 21 29 29 30 22 31 28 32 27 33 23 34 26 35
REMARK SMILES IDX 24 36 25 37
REMARK H PARENT 15 19 16 20 26 38
ROOT
ATOM      1  N   UNL     1     114.695 113.977  79.251  1.00  0.00    -0.223 NA
ATOM      2  N   UNL     1     112.952 115.081  78.175  1.00  0.00    -0.225 NA
ATOM      3  N   UNL     1     112.806 111.760  79.828  1.00  0.00    -0.296 N 
ATOM      4  N   UNL     1     111.748 110.923  79.880  1.00  0.00    -0.300 N 
ATOM      5  C   UNL     1     116.463 115.726  78.865  1.00  0.00     0.065 A 
ATOM      6  C   UNL     1     115.128 115.103  78.797  1.00  0.00     0.115 A 
ATOM      7  C   UNL     1     116.571 116.929  78.275  1.00  0.00     0.028 A 
ATOM      8  C   UNL     1     114.014 115.805  78.111  1.00  0.00     0.093 A 
ATOM      9  C   UNL     1     112.542 112.941  79.159  1.00  0.00     0.108 C 
ATOM     10  C   UNL     1     113.363 113.959  78.873  1.00  0.00     0.179 C 
ATOM     11  C   UNL     1     111.111 112.847  78.791  1.00  0.00     0.028 A 
ATOM     12  C   UNL     1     110.668 111.597  79.296  1.00  0.00     0.064 A 
ATOM     13  C   UNL     1     115.482 117.613  77.606  1.00  0.00     0.005 A 
ATOM     14  C   UNL     1     114.244 117.114  77.503  1.00  0.00     0.031 A 
ATOM     15  C   UNL     1     108.497 112.014  78.430  1.00  0.00    -0.016 A 
ATOM     16  C   UNL     1     109.373 111.162  79.108  1.00  0.00     0.037 A 
ATOM     17  C   UNL     1     110.247 113.691  78.120  1.00  0.00     0.013 A 
ATOM     18  C   UNL     1     108.928 113.264  77.945  1.00  0.00     0.009 A 
ATOM     19  H   UNL     1     113.736 111.500  80.127  1.00  0.00     0.188 HD
ATOM     20  H   UNL     1     111.635 110.221  80.597  1.00  0.00     0.188 HD
ENDROOT
BRANCH   5  21
ATOM     21  N   UNL     1     117.448 115.035  79.507  1.00  0.00    -0.367 N 
ATOM     22  C   UNL     1     117.690 113.613  79.264  1.00  0.00     0.132 C 
ATOM     23  C   UNL     1     118.456 115.699  80.333  1.00  0.00     0.132 C 
ATOM     24  C   UNL     1     117.912 112.884  80.590  1.00  0.00     0.105 C 
ATOM     25  C   UNL     1     118.661 114.925  81.636  1.00  0.00     0.105 C 
ATOM     26  N   UNL     1     118.989 113.518  81.365  1.00  0.00    -0.303 NA
ATOM     27  C   UNL     1     119.219 112.793  82.614  1.00  0.00     0.105 C 
ENDBRANCH   5  21
BRANCH  15  28
ATOM     28  C   UNL     1     107.097 111.596  78.215  1.00  0.00    -0.018 C 
ATOM     29  C   UNL     1     106.159 112.051  79.075  1.00  0.00     0.015 C 
ATOM     30  C   UNL     1     106.722 110.654  77.163  1.00  0.00     0.007 C 
ATOM     31  C   UNL     1     104.765 111.652  78.956  1.00  0.00    -0.021 C 
ATOM     32  C   UNL     1     105.435 110.406  76.867  1.00  0.00     0.003 C 
ATOM     33  C   UNL     1     104.325 111.116  77.591  1.00  0.00     0.132 C 
ATOM     34  C   UNL     1     103.916 111.683  80.004  1.00  0.00     0.008 C 
ATOM     35  N   UNL     1     103.164 110.245  77.744  1.00  0.00    -0.381 N 
ATOM     36  C   UNL     1     102.592 111.103  79.892  1.00  0.00     0.018 C 
ATOM     37  C   UNL     1     102.296 110.382  78.801  1.00  0.00     0.078 C 
ATOM     38  H   UNL     1     102.830 109.720  76.943  1.00  0.00     0.160 HD
ENDBRANCH  15  28
TORSDOF 2
ENDMDL
MODEL 4
REMARK VINA RESULT:      -8.8      2.303     10.883
REMARK SMILES CN1CCN(c2cccc3c2=N/C(=C2\NNc4cc(C5=CC6=CC=CN[C@@H]6C=C5)ccc42)N=3)CC1
REMARK SMILES IDX 12 1 33 2 15 3 16 4 6 5 11 6 7 7 10 8 14 9 13 10 32 11 17 12
REMARK SMILES IDX 8 13 9 14 19 15 18 16 31 17 30 18 5 21 4 22 34 23 3 24 35 25
REMARK SMILES IDX 2 26 1 27 20 28 21 29 29 30 22 31 28 32 27 33 23 34 26 35
REMARK SMILES IDX 24 36 25 37
REMARK H PARENT 15 19 16 20 26 38
ROOT
ATOM      1  N   UNL     1     114.941 113.278  79.044  1.00  0.00    -0.223 NA
ATOM      2  N   UNL     1     113.957 111.976  77.384  1.00  0.00    -0.225 NA
ATOM      3  N   UNL     1     112.235 113.680  80.197  1.00  0.00    -0.296 N 
ATOM      4  N   UNL     1     110.919 113.627  80.498  1.00  0.00    -0.300 N 
ATOM      5  C   UNL     1     117.318 113.060  78.248  1.00  0.00     0.065 A 
ATOM      6  C   UNL     1     115.859 112.851  78.246  1.00  0.00     0.115 A 
ATOM      7  C   UNL     1     117.991 112.459  77.252  1.00  0.00     0.028 A 
ATOM      8  C   UNL     1     115.228 112.021  77.189  1.00  0.00     0.093 A 
ATOM      9  C   UNL     1     112.571 112.956  79.069  1.00  0.00     0.108 C 
ATOM     10  C   UNL     1     113.775 112.745  78.521  1.00  0.00     0.179 C 
ATOM     11  C   UNL     1     111.283 112.424  78.571  1.00  0.00     0.028 A 
ATOM     12  C   UNL     1     110.298 112.903  79.473  1.00  0.00     0.064 A 
ATOM     13  C   UNL     1     117.374 111.649  76.220  1.00  0.00     0.005 A 
ATOM     14  C   UNL     1     116.058 111.413  76.150  1.00  0.00     0.031 A 
ATOM     15  C   UNL     1     108.613 111.777  78.234  1.00  0.00    -0.016 A 
ATOM     16  C   UNL     1     108.966 112.574  79.327  1.00  0.00     0.037 A 
ATOM     17  C   UNL     1     110.937 111.635  77.490  1.00  0.00     0.013 A 
ATOM     18  C   UNL     1     109.586 111.316  77.326  1.00  0.00     0.009 A 
ATOM     19  H   UNL     1     112.928 114.093  80.806  1.00  0.00     0.188 HD
ATOM     20  H   UNL     1     110.446 114.342  81.030  1.00  0.00     0.188 HD
ENDROOT
BRANCH   5  21
ATOM     21  N   UNL     1     117.842 113.831  79.244  1.00  0.00    -0.367 N 
ATOM     22  C   UNL     1     118.662 113.269  80.317  1.00  0.00     0.132 C 
ATOM     23  C   UNL     1     117.789 115.293  79.209  1.00  0.00     0.132 C 
ATOM     24  C   UNL     1     118.240 113.857  81.664  1.00  0.00     0.105 C 
ATOM     25  C   UNL     1     117.386 115.837  80.580  1.00  0.00     0.105 C 
ATOM     26  N   UNL     1     118.279 115.327  81.632  1.00  0.00    -0.303 NA
ATOM     27  C   UNL     1     117.909 115.880  82.934  1.00  0.00     0.105 C 
ENDBRANCH   5  21
BRANCH  15  28
ATOM     28  C   UNL     1     107.198 111.408  78.031  1.00  0.00    -0.018 C 
ATOM     29  C   UNL     1     106.283 111.902  78.893  1.00  0.00     0.015 C 
ATOM     30  C   UNL     1     106.782 110.472  76.989  1.00  0.00     0.007 C 
ATOM     31  C   UNL     1     104.875 111.553  78.787  1.00  0.00    -0.021 C 
ATOM     32  C   UNL     1     105.486 110.268  76.702  1.00  0.00     0.003 C 
ATOM     33  C   UNL     1     104.407 111.023  77.429  1.00  0.00     0.132 C 
ATOM     34  C   UNL     1     104.034 111.621  79.840  1.00  0.00     0.008 C 
ATOM     35  N   UNL     1     103.216 110.195  77.596  1.00  0.00    -0.381 N 
ATOM     36  C   UNL     1     102.690 111.088  79.741  1.00  0.00     0.018 C 
ATOM     37  C   UNL     1     102.360 110.371  78.657  1.00  0.00     0.078 C 
ATOM     38  H   UNL     1     102.858 109.677  76.800  1.00  0.00     0.160 HD
ENDBRANCH  15  28
TORSDOF 2
ENDMDL
MODEL 5
REMARK VINA RESULT:      -8.7      1.913      2.895
REMARK SMILES CN1CCN(c2cccc3c2=N/C(=C2\NNc4cc(C5=CC6=CC=CN[C@@H]6C=C5)ccc42)N=3)CC1
REMARK SMILES IDX 12 1 33 2 15 3 16 4 6 5 11 6 7 7 10 8 14 9 13 10 32 11 17 12
REMARK SMILES IDX 8 13 9 14 19 15 18 16 31 17 30 18 5 21 4 22 34 23 3 24 35 25
REMARK SMILES IDX 2 26 1 27 20 28 21 29 29 30 22 31 28 32 27 33 23 34 26 35
REMARK SMILES IDX 24 36 25 37
REMARK H PARENT 15 19 16 20 26 38
ROOT
ATOM      1  N   UNL     1     107.337 112.059  78.538  1.00  0.00    -0.223 NA
ATOM      2  N   UNL     1     109.169 111.417  77.253  1.00  0.00    -0.225 NA
ATOM      3  N   UNL     1     109.191 113.681  80.195  1.00  0.00    -0.296 N 
ATOM      4  N   UNL     1     110.253 114.342  80.705  1.00  0.00    -0.300 N 
ATOM      5  C   UNL     1     105.591 110.769  77.266  1.00  0.00     0.065 A 
ATOM      6  C   UNL     1     106.936 111.271  77.600  1.00  0.00     0.115 A 
ATOM      7  C   UNL     1     105.526 109.948  76.204  1.00  0.00     0.028 A 
ATOM      8  C   UNL     1     108.106 110.863  76.783  1.00  0.00     0.093 A 
ATOM      9  C   UNL     1     109.506 112.891  79.105  1.00  0.00     0.108 C 
ATOM     10  C   UNL     1     108.703 112.152  78.330  1.00  0.00     0.179 C 
ATOM     11  C   UNL     1     110.971 113.040  78.948  1.00  0.00     0.028 A 
ATOM     12  C   UNL     1     111.378 113.918  79.987  1.00  0.00     0.064 A 
ATOM     13  C   UNL     1     106.670 109.551  75.406  1.00  0.00     0.005 A 
ATOM     14  C   UNL     1     107.921 109.963  75.646  1.00  0.00     0.031 A 
ATOM     15  C   UNL     1     113.624 113.774  79.230  1.00  0.00    -0.016 A 
ATOM     16  C   UNL     1     112.694 114.305  80.128  1.00  0.00     0.037 A 
ATOM     17  C   UNL     1     111.888 112.515  78.059  1.00  0.00     0.013 A 
ATOM     18  C   UNL     1     113.227 112.888  78.210  1.00  0.00     0.009 A 
ATOM     19  H   UNL     1     108.239 113.847  80.491  1.00  0.00     0.188 HD
ATOM     20  H   UNL     1     110.299 114.656  81.663  1.00  0.00     0.188 HD
ENDROOT
BRANCH   5  21
ATOM     21  N   UNL     1     104.554 111.178  78.052  1.00  0.00    -0.367 N 
ATOM     22  C   UNL     1     104.409 112.564  78.494  1.00  0.00     0.132 C 
ATOM     23  C   UNL     1     103.411 110.313  78.348  1.00  0.00     0.132 C 
ATOM     24  C   UNL     1     104.030 112.606  79.976  1.00  0.00     0.105 C 
ATOM     25  C   UNL     1     103.054 110.403  79.832  1.00  0.00     0.105 C 
ATOM     26  N   UNL     1     102.827 111.800  80.234  1.00  0.00    -0.303 NA
ATOM     27  C   UNL     1     102.451 111.874  81.645  1.00  0.00     0.105 C 
ENDBRANCH   5  21
BRANCH  15  28
ATOM     28  C   UNL     1     115.047 114.152  79.348  1.00  0.00    -0.018 C 
ATOM     29  C   UNL     1     115.898 113.257  79.897  1.00  0.00     0.015 C 
ATOM     30  C   UNL     1     115.532 115.477  78.969  1.00  0.00     0.007 C 
ATOM     31  C   UNL     1     117.306 113.568  80.087  1.00  0.00    -0.021 C 
ATOM     32  C   UNL     1     116.845 115.759  78.922  1.00  0.00     0.003 C 
ATOM     33  C   UNL     1     117.872 114.706  79.233  1.00  0.00     0.132 C 
ATOM     34  C   UNL     1     118.063 112.943  81.013  1.00  0.00     0.008 C 
ATOM     35  N   UNL     1     119.038 115.293  79.887  1.00  0.00    -0.381 N 
ATOM     36  C   UNL     1     119.405 113.410  81.299  1.00  0.00     0.018 C 
ATOM     37  C   UNL     1     119.810 114.571  80.765  1.00  0.00     0.078 C 
ATOM     38  H   UNL     1     119.450 116.136  79.500  1.00  0.00     0.160 HD
ENDBRANCH  15  28
TORSDOF 2
ENDMDL
MODEL 6
REMARK VINA RESULT:      -8.5      2.472     11.329
REMARK SMILES CN1CCN(c2cccc3c2=N/C(=C2\NNc4cc(C5=CC6=CC=CN[C@@H]6C=C5)ccc42)N=3)CC1
REMARK SMILES IDX 12 1 33 2 15 3 16 4 6 5 11 6 7 7 10 8 14 9 13 10 32 11 17 12
REMARK SMILES IDX 8 13 9 14 19 15 18 16 31 17 30 18 5 21 4 22 34 23 3 24 35 25
REMARK SMILES IDX 2 26 1 27 20 28 21 29 29 30 22 31 28 32 27 33 23 34 26 35
REMARK SMILES IDX 24 36 25 37
REMARK H PARENT 15 19 16 20 26 38
ROOT
ATOM      1  N   UNL     1     115.984 113.012  80.211  1.00  0.00    -0.223 NA
ATOM      2  N   UNL     1     114.563 114.203  78.804  1.00  0.00    -0.225 NA
ATOM      3  N   UNL     1     113.784 111.060  80.619  1.00  0.00    -0.296 N 
ATOM      4  N   UNL     1     112.640 110.346  80.556  1.00  0.00    -0.300 N 
ATOM      5  C   UNL     1     117.981 114.527  80.000  1.00  0.00     0.065 A 
ATOM      6  C   UNL     1     116.609 114.045  79.761  1.00  0.00     0.115 A 
ATOM      7  C   UNL     1     118.316 115.661  79.361  1.00  0.00     0.028 A 
ATOM      8  C   UNL     1     115.700 114.803  78.865  1.00  0.00     0.093 A 
ATOM      9  C   UNL     1     113.763 112.204  79.844  1.00  0.00     0.108 C 
ATOM     10  C   UNL     1     114.731 113.104  79.629  1.00  0.00     0.179 C 
ATOM     11  C   UNL     1     112.403 112.233  79.260  1.00  0.00     0.028 A 
ATOM     12  C   UNL     1     111.746 111.081  79.766  1.00  0.00     0.064 A 
ATOM     13  C   UNL     1     117.428 116.400  78.485  1.00  0.00     0.005 A 
ATOM     14  C   UNL     1     116.169 116.028  78.219  1.00  0.00     0.031 A 
ATOM     15  C   UNL     1     109.793 111.654  78.543  1.00  0.00    -0.016 A 
ATOM     16  C   UNL     1     110.452 110.771  79.404  1.00  0.00     0.037 A 
ATOM     17  C   UNL     1     111.754 113.106  78.409  1.00  0.00     0.013 A 
ATOM     18  C   UNL     1     110.435 112.808  78.054  1.00  0.00     0.009 A 
ATOM     19  H   UNL     1     114.622 110.728  81.078  1.00  0.00     0.188 HD
ATOM     20  H   UNL     1     112.339 109.720  81.289  1.00  0.00     0.188 HD
ENDROOT
BRANCH   5  21
ATOM     21  N   UNL     1     118.771 113.790  80.833  1.00  0.00    -0.367 N 
ATOM     22  C   UNL     1     118.215 112.863  81.818  1.00  0.00     0.132 C 
ATOM     23  C   UNL     1     120.224 113.723  80.673  1.00  0.00     0.132 C 
ATOM     24  C   UNL     1     118.944 113.018  83.154  1.00  0.00     0.105 C 
ATOM     25  C   UNL     1     120.909 113.858  82.033  1.00  0.00     0.105 C 
ATOM     26  N   UNL     1     120.396 112.859  82.982  1.00  0.00    -0.303 NA
ATOM     27  C   UNL     1     121.081 112.973  84.269  1.00  0.00     0.105 C 
ENDBRANCH   5  21
BRANCH  15  28
ATOM     28  C   UNL     1     108.403 111.369  78.135  1.00  0.00    -0.018 C 
ATOM     29  C   UNL     1     107.405 111.978  78.814  1.00  0.00     0.015 C 
ATOM     30  C   UNL     1     108.084 110.401  77.089  1.00  0.00     0.007 C 
ATOM     31  C   UNL     1     106.009 111.719  78.502  1.00  0.00    -0.021 C 
ATOM     32  C   UNL     1     106.836 110.268  76.610  1.00  0.00     0.003 C 
ATOM     33  C   UNL     1     105.718 111.138  77.115  1.00  0.00     0.132 C 
ATOM     34  C   UNL     1     105.022 111.911  79.402  1.00  0.00     0.008 C 
ATOM     35  N   UNL     1     104.455 110.405  77.131  1.00  0.00    -0.381 N 
ATOM     36  C   UNL     1     103.673 111.465  79.116  1.00  0.00     0.018 C 
ATOM     37  C   UNL     1     103.462 110.705  78.032  1.00  0.00     0.078 C 
ATOM     38  H   UNL     1     104.187 109.864  76.316  1.00  0.00     0.160 HD
ENDBRANCH  15  28
TORSDOF 2
ENDMDL
MODEL 7
REMARK VINA RESULT:      -8.0      1.573      3.311
REMARK SMILES CN1CCN(c2cccc3c2=N/C(=C2\NNc4cc(C5=CC6=CC=CN[C@@H]6C=C5)ccc42)N=3)CC1
REMARK SMILES IDX 12 1 33 2 15 3 16 4 6 5 11 6 7 7 10 8 14 9 13 10 32 11 17 12
REMARK SMILES IDX 8 13 9 14 19 15 18 16 31 17 30 18 5 21 4 22 34 23 3 24 35 25
REMARK SMILES IDX 2 26 1 27 20 28 21 29 29 30 22 31 28 32 27 33 23 34 26 35
REMARK SMILES IDX 24 36 25 37
REMARK H PARENT 15 19 16 20 26 38
ROOT
ATOM      1  N   UNL     1     110.652 111.639  75.730  1.00  0.00    -0.223 NA
ATOM      2  N   UNL     1     110.662 112.552  77.871  1.00  0.00    -0.225 NA
ATOM      3  N   UNL     1     113.619 111.688  75.800  1.00  0.00    -0.296 N 
ATOM      4  N   UNL     1     114.919 111.788  76.155  1.00  0.00    -0.300 N 
ATOM      5  C   UNL     1     108.154 111.495  75.460  1.00  0.00     0.065 A 
ATOM      6  C   UNL     1     109.435 111.794  76.126  1.00  0.00     0.115 A 
ATOM      7  C   UNL     1     107.050 111.785  76.170  1.00  0.00     0.028 A 
ATOM      8  C   UNL     1     109.445 112.376  77.491  1.00  0.00     0.093 A 
ATOM      9  C   UNL     1     112.746 112.112  76.783  1.00  0.00     0.108 C 
ATOM     10  C   UNL     1     111.407 112.102  76.794  1.00  0.00     0.179 C 
ATOM     11  C   UNL     1     113.621 112.589  77.878  1.00  0.00     0.028 A 
ATOM     12  C   UNL     1     114.949 112.397  77.415  1.00  0.00     0.064 A 
ATOM     13  C   UNL     1     107.062 112.354  77.504  1.00  0.00     0.005 A 
ATOM     14  C   UNL     1     108.182 112.653  78.174  1.00  0.00     0.031 A 
ATOM     15  C   UNL     1     115.789 113.262  79.461  1.00  0.00    -0.016 A 
ATOM     16  C   UNL     1     116.038 112.712  78.201  1.00  0.00     0.037 A 
ATOM     17  C   UNL     1     113.372 113.132  79.124  1.00  0.00     0.013 A 
ATOM     18  C   UNL     1     114.473 113.472  79.916  1.00  0.00     0.009 A 
ATOM     19  H   UNL     1     113.308 111.225  74.957  1.00  0.00     0.188 HD
ATOM     20  H   UNL     1     115.668 111.874  75.484  1.00  0.00     0.188 HD
ENDROOT
BRANCH   5  21
ATOM     21  N   UNL     1     108.206 110.961  74.206  1.00  0.00    -0.367 N 
ATOM     22  C   UNL     1     109.369 111.126  73.335  1.00  0.00     0.132 C 
ATOM     23  C   UNL     1     107.195 110.025  73.714  1.00  0.00     0.132 C 
ATOM     24  C   UNL     1     108.917 111.469  71.914  1.00  0.00     0.105 C 
ATOM     25  C   UNL     1     106.790 110.391  72.286  1.00  0.00     0.105 C 
ATOM     26  N   UNL     1     107.968 110.467  71.408  1.00  0.00    -0.303 NA
ATOM     27  C   UNL     1     107.569 110.782  70.038  1.00  0.00     0.105 C 
ENDBRANCH   5  21
BRANCH  15  28
ATOM     28  C   UNL     1     116.924 113.625  80.333  1.00  0.00    -0.018 C 
ATOM     29  C   UNL     1     118.032 112.854  80.287  1.00  0.00     0.015 C 
ATOM     30  C   UNL     1     116.847 114.729  81.287  1.00  0.00     0.007 C 
ATOM     31  C   UNL     1     119.176 113.119  81.145  1.00  0.00    -0.021 C 
ATOM     32  C   UNL     1     117.930 115.158  81.956  1.00  0.00     0.003 C 
ATOM     33  C   UNL     1     119.278 114.532  81.725  1.00  0.00     0.132 C 
ATOM     34  C   UNL     1     120.067 112.160  81.474  1.00  0.00     0.008 C 
ATOM     35  N   UNL     1     120.062 114.515  82.957  1.00  0.00    -0.381 N 
ATOM     36  C   UNL     1     121.082 112.416  82.476  1.00  0.00     0.018 C 
ATOM     37  C   UNL     1     121.008 113.547  83.193  1.00  0.00     0.078 C 
ATOM     38  H   UNL     1     120.116 115.357  83.520  1.00  0.00     0.160 HD
ENDBRANCH  15  28
TORSDOF 2
ENDMDL
MODEL 8
REMARK VINA RESULT:      -7.8      1.311      3.270
REMARK SMILES CN1CCN(c2cccc3c2=N/C(=C2\NNc4cc(C5=CC6=CC=CN[C@@H]6C=C5)ccc42)N=3)CC1
REMARK SMILES IDX 12 1 33 2 15 3 16 4 6 5 11 6 7 7 10 8 14 9 13 10 32 11 17 12
REMARK SMILES IDX 8 13 9 14 19 15 18 16 31 17 30 18 5 21 4 22 34 23 3 24 35 25
REMARK SMILES IDX 2 26 1 27 20 28 21 29 29 30 22 31 28 32 27 33 23 34 26 35
REMARK SMILES IDX 24 36 25 37
REMARK H PARENT 15 19 16 20 26 38
ROOT
ATOM      1  N   UNL     1     109.322 111.855  76.550  1.00  0.00    -0.223 NA
ATOM      2  N   UNL     1     109.638 112.650  78.715  1.00  0.00    -0.225 NA
ATOM      3  N   UNL     1     112.263 111.999  76.171  1.00  0.00    -0.296 N 
ATOM      4  N   UNL     1     113.598 112.123  76.330  1.00  0.00    -0.300 N 
ATOM      5  C   UNL     1     106.817 111.643  76.655  1.00  0.00     0.065 A 
ATOM      6  C   UNL     1     108.177 111.948  77.135  1.00  0.00     0.115 A 
ATOM      7  C   UNL     1     105.828 111.857  77.541  1.00  0.00     0.028 A 
ATOM      8  C   UNL     1     108.382 112.455  78.515  1.00  0.00     0.093 A 
ATOM      9  C   UNL     1     111.540 112.340  77.299  1.00  0.00     0.108 C 
ATOM     10  C   UNL     1     110.220 112.284  77.513  1.00  0.00     0.179 C 
ATOM     11  C   UNL     1     112.562 112.786  78.274  1.00  0.00     0.028 A 
ATOM     12  C   UNL     1     113.807 112.664  77.605  1.00  0.00     0.064 A 
ATOM     13  C   UNL     1     106.030 112.352  78.888  1.00  0.00     0.005 A 
ATOM     14  C   UNL     1     107.232 112.652  79.396  1.00  0.00     0.031 A 
ATOM     15  C   UNL     1     114.930 113.444  79.547  1.00  0.00    -0.016 A 
ATOM     16  C   UNL     1     114.996 112.972  78.233  1.00  0.00     0.037 A 
ATOM     17  C   UNL     1     112.493 113.252  79.573  1.00  0.00     0.013 A 
ATOM     18  C   UNL     1     113.694 113.585  80.207  1.00  0.00     0.009 A 
ATOM     19  H   UNL     1     111.837 111.573  75.360  1.00  0.00     0.188 HD
ATOM     20  H   UNL     1     114.234 112.270  75.560  1.00  0.00     0.188 HD
ENDROOT
BRANCH   5  21
ATOM     21  N   UNL     1     106.689 111.179  75.378  1.00  0.00    -0.367 N 
ATOM     22  C   UNL     1     106.323 109.794  75.084  1.00  0.00     0.132 C 
ATOM     23  C   UNL     1     106.715 112.070  74.218  1.00  0.00     0.132 C 
ATOM     24  C   UNL     1     107.205 109.244  73.963  1.00  0.00     0.105 C 
ATOM     25  C   UNL     1     107.589 111.471  73.115  1.00  0.00     0.105 C 
ATOM     26  N   UNL     1     107.147 110.110  72.776  1.00  0.00    -0.303 NA
ATOM     27  C   UNL     1     107.964 109.559  71.696  1.00  0.00     0.105 C 
ENDBRANCH   5  21
BRANCH  15  28
ATOM     28  C   UNL     1     116.176 113.797  80.256  1.00  0.00    -0.018 C 
ATOM     29  C   UNL     1     117.286 113.077  79.984  1.00  0.00     0.015 C 
ATOM     30  C   UNL     1     116.215 114.832  81.286  1.00  0.00     0.007 C 
ATOM     31  C   UNL     1     118.543 113.334  80.670  1.00  0.00    -0.021 C 
ATOM     32  C   UNL     1     117.376 115.262  81.808  1.00  0.00     0.003 C 
ATOM     33  C   UNL     1     118.690 114.710  81.327  1.00  0.00     0.132 C 
ATOM     34  C   UNL     1     119.504 112.395  80.789  1.00  0.00     0.008 C 
ATOM     35  N   UNL     1     119.658 114.645  82.418  1.00  0.00    -0.381 N 
ATOM     36  C   UNL     1     120.656 112.627  81.637  1.00  0.00     0.018 C 
ATOM     37  C   UNL     1     120.660 113.705  82.435  1.00  0.00     0.078 C 
ATOM     38  H   UNL     1     119.774 115.450  83.024  1.00  0.00     0.160 HD
ENDBRANCH  15  28
TORSDOF 2
ENDMDL
