MODEL 1
REMARK VINA RESULT:     -11.1      0.000      0.000
REMARK SMILES O=C(NCc1ccc2c(c1)OCO2)[C@@H]1[C@@H]2C=C[C@@]3(CN(CCc4c[nH]c5ccccc45)C(=O)[C@H]13)O2
REMARK SMILES IDX 35 1 33 2 20 3 18 4 34 5 14 6 15 7 19 8 17 9 32 10 16 11
REMARK SMILES IDX 2 12 1 13 3 14 4 16 5 17 10 18 6 19 9 20 7 21 11 22 8 23
REMARK SMILES IDX 12 24 13 25 21 26 22 27 23 28 31 29 24 30 26 31 30 32 25 33
REMARK SMILES IDX 27 34 29 35 28 36
REMARK H PARENT 3 15 25 37
ROOT
ATOM      1  O   UNL     1     110.258 114.525  80.505  1.00  0.00    -0.360 OA
ATOM      2  O   UNL     1     111.424 112.602  76.494  1.00  0.00    -0.274 OA
ATOM      3  N   UNL     1     109.417 112.352  77.753  1.00  0.00    -0.339 N 
ATOM      4  C   UNL     1     110.148 113.389  79.647  1.00  0.00     0.117 C 
ATOM      5  C   UNL     1     110.896 113.980  78.437  1.00  0.00     0.132 C 
ATOM      6  C   UNL     1     112.148 114.557  79.093  1.00  0.00     0.127 C 
ATOM      7  C   UNL     1     111.737 114.468  80.595  1.00  0.00     0.155 C 
ATOM      8  C   UNL     1     108.880 112.884  79.013  1.00  0.00     0.160 C 
ATOM      9  C   UNL     1     110.940 112.367  80.429  1.00  0.00     0.009 C 
ATOM     10  C   UNL     1     110.690 112.881  77.425  1.00  0.00     0.230 C 
ATOM     11  C   UNL     1     111.898 113.052  81.060  1.00  0.00     0.004 C 
ENDROOT
BRANCH   6  12
ATOM     12  C   UNL     1     113.427 113.865  78.737  1.00  0.00     0.227 C 
ATOM     13  O   UNL     1     113.494 112.643  78.635  1.00  0.00    -0.275 OA
ATOM     14  N   UNL     1     114.475 114.753  78.573  1.00  0.00    -0.352 N 
ATOM     15  H   UNL     1     114.311 115.746  78.713  1.00  0.00     0.163 HD
BRANCH  14  16
ATOM     16  C   UNL     1     115.821 114.337  78.249  1.00  0.00     0.151 C 
BRANCH  16  17
ATOM     17  C   UNL     1     116.705 114.300  79.462  1.00  0.00    -0.025 A 
ATOM     18  C   UNL     1     117.739 113.363  79.538  1.00  0.00     0.056 A 
ATOM     19  C   UNL     1     116.484 115.208  80.511  1.00  0.00     0.009 A 
ATOM     20  C   UNL     1     118.525 113.367  80.672  1.00  0.00     0.166 A 
ATOM     21  C   UNL     1     117.294 115.191  81.649  1.00  0.00     0.051 A 
ATOM     22  O   UNL     1     119.571 112.533  80.922  1.00  0.00    -0.454 OA
ATOM     23  C   UNL     1     118.308 114.257  81.700  1.00  0.00     0.165 A 
ATOM     24  C   UNL     1     119.989 112.998  82.222  1.00  0.00     0.468 C 
ATOM     25  O   UNL     1     119.192 114.090  82.721  1.00  0.00    -0.454 OA
ENDBRANCH  16  17
ENDBRANCH  14  16
ENDBRANCH   6  12
BRANCH   3  26
ATOM     26  C   UNL     1     108.719 111.389  76.934  1.00  0.00     0.124 C 
BRANCH  26  27
ATOM     27  C   UNL     1     107.464 110.842  77.611  1.00  0.00     0.059 C 
BRANCH  27  28
ATOM     28  C   UNL     1     106.212 111.587  77.221  1.00  0.00    -0.021 A 
ATOM     29  C   UNL     1     105.117 111.908  78.071  1.00  0.00     0.003 A 
ATOM     30  C   UNL     1     105.928 112.079  75.967  1.00  0.00     0.087 A 
ATOM     31  C   UNL     1     104.184 112.599  77.295  1.00  0.00     0.046 A 
ATOM     32  C   UNL     1     104.829 111.677  79.430  1.00  0.00     0.010 A 
ATOM     33  N   UNL     1     104.703 112.688  76.021  1.00  0.00    -0.361 N 
ATOM     34  C   UNL     1     102.973 113.072  77.811  1.00  0.00     0.026 A 
ATOM     35  C   UNL     1     103.621 112.144  79.962  1.00  0.00     0.001 A 
ATOM     36  C   UNL     1     102.709 112.831  79.163  1.00  0.00     0.002 A 
ATOM     37  H   UNL     1     104.245 113.137  75.241  1.00  0.00     0.166 HD
ENDBRANCH  27  28
ENDBRANCH  26  27
ENDBRANCH   3  26
TORSDOF 6
ENDMDL
MODEL 2
REMARK VINA RESULT:     -11.0      1.283      1.555
REMARK SMILES O=C(NCc1ccc2c(c1)OCO2)[C@@H]1[C@@H]2C=C[C@@]3(CN(CCc4c[nH]c5ccccc45)C(=O)[C@H]13)O2
REMARK SMILES IDX 35 1 33 2 20 3 18 4 34 5 14 6 15 7 19 8 17 9 32 10 16 11
REMARK SMILES IDX 2 12 1 13 3 14 4 16 5 17 10 18 6 19 9 20 7 21 11 22 8 23
REMARK SMILES IDX 12 24 13 25 21 26 22 27 23 28 31 29 24 30 26 31 30 32 25 33
REMARK SMILES IDX 27 34 29 35 28 36
REMARK H PARENT 3 15 25 37
ROOT
ATOM      1  O   UNL     1     109.592 116.033  77.929  1.00  0.00    -0.360 OA
ATOM      2  O   UNL     1     111.180 111.762  77.312  1.00  0.00    -0.274 OA
ATOM      3  N   UNL     1     109.025 112.650  76.819  1.00  0.00    -0.339 N 
ATOM      4  C   UNL     1     109.290 114.638  77.902  1.00  0.00     0.117 C 
ATOM      5  C   UNL     1     110.669 114.145  77.424  1.00  0.00     0.132 C 
ATOM      6  C   UNL     1     111.613 114.895  78.360  1.00  0.00     0.127 C 
ATOM      7  C   UNL     1     110.619 115.917  78.993  1.00  0.00     0.155 C 
ATOM      8  C   UNL     1     108.362 113.956  76.934  1.00  0.00     0.160 C 
ATOM      9  C   UNL     1     109.012 114.381  79.365  1.00  0.00     0.009 C 
ATOM     10  C   UNL     1     110.382 112.678  77.226  1.00  0.00     0.230 C 
ATOM     11  C   UNL     1     109.805 115.218  80.041  1.00  0.00     0.004 C 
ENDROOT
BRANCH   6  12
ATOM     12  C   UNL     1     112.354 114.035  79.336  1.00  0.00     0.227 C 
ATOM     13  O   UNL     1     112.005 113.940  80.509  1.00  0.00    -0.275 OA
ATOM     14  N   UNL     1     113.448 113.413  78.760  1.00  0.00    -0.352 N 
ATOM     15  H   UNL     1     113.662 113.588  77.782  1.00  0.00     0.163 HD
BRANCH  14  16
ATOM     16  C   UNL     1     114.342 112.546  79.494  1.00  0.00     0.151 C 
BRANCH  16  17
ATOM     17  C   UNL     1     115.522 113.293  80.046  1.00  0.00    -0.025 A 
ATOM     18  C   UNL     1     116.770 112.669  80.108  1.00  0.00     0.056 A 
ATOM     19  C   UNL     1     115.359 114.614  80.497  1.00  0.00     0.009 A 
ATOM     20  C   UNL     1     117.824 113.395  80.623  1.00  0.00     0.166 A 
ATOM     21  C   UNL     1     116.442 115.327  81.016  1.00  0.00     0.051 A 
ATOM     22  O   UNL     1     119.105 112.955  80.762  1.00  0.00    -0.454 OA
ATOM     23  C   UNL     1     117.664 114.689  81.065  1.00  0.00     0.165 A 
ATOM     24  C   UNL     1     119.734 114.118  81.340  1.00  0.00     0.468 C 
ATOM     25  O   UNL     1     118.826 115.220  81.536  1.00  0.00    -0.454 OA
ENDBRANCH  16  17
ENDBRANCH  14  16
ENDBRANCH   6  12
BRANCH   3  26
ATOM     26  C   UNL     1     108.361 111.459  76.341  1.00  0.00     0.124 C 
BRANCH  26  27
ATOM     27  C   UNL     1     107.256 110.985  77.283  1.00  0.00     0.059 C 
BRANCH  27  28
ATOM     28  C   UNL     1     105.954 111.719  77.078  1.00  0.00    -0.021 A 
ATOM     29  C   UNL     1     104.942 111.939  78.054  1.00  0.00     0.003 A 
ATOM     30  C   UNL     1     105.534 112.298  75.901  1.00  0.00     0.087 A 
ATOM     31  C   UNL     1     103.920 112.658  77.431  1.00  0.00     0.046 A 
ATOM     32  C   UNL     1     104.797 111.594  79.412  1.00  0.00     0.010 A 
ATOM     33  N   UNL     1     104.306 112.862  76.124  1.00  0.00    -0.361 N 
ATOM     34  C   UNL     1     102.755 113.051  78.100  1.00  0.00     0.026 A 
ATOM     35  C   UNL     1     103.638 111.981  80.095  1.00  0.00     0.001 A 
ATOM     36  C   UNL     1     102.634 112.698  79.447  1.00  0.00     0.002 A 
ATOM     37  H   UNL     1     103.762 113.355  75.431  1.00  0.00     0.166 HD
ENDBRANCH  27  28
ENDBRANCH  26  27
ENDBRANCH   3  26
TORSDOF 6
ENDMDL
MODEL 3
REMARK VINA RESULT:     -11.0      2.062      2.985
REMARK SMILES O=C(NCc1ccc2c(c1)OCO2)[C@@H]1[C@@H]2C=C[C@@]3(CN(CCc4c[nH]c5ccccc45)C(=O)[C@H]13)O2
REMARK SMILES IDX 35 1 33 2 20 3 18 4 34 5 14 6 15 7 19 8 17 9 32 10 16 11
REMARK SMILES IDX 2 12 1 13 3 14 4 16 5 17 10 18 6 19 9 20 7 21 11 22 8 23
REMARK SMILES IDX 12 24 13 25 21 26 22 27 23 28 31 29 24 30 26 31 30 32 25 33
REMARK SMILES IDX 27 34 29 35 28 36
REMARK H PARENT 3 15 25 37
ROOT
ATOM      1  O   UNL     1     110.392 111.552  80.606  1.00  0.00    -0.360 OA
ATOM      2  O   UNL     1     111.641 115.555  78.720  1.00  0.00    -0.274 OA
ATOM      3  N   UNL     1     109.558 114.407  78.568  1.00  0.00    -0.339 N 
ATOM      4  C   UNL     1     110.254 112.448  79.503  1.00  0.00     0.117 C 
ATOM      5  C   UNL     1     111.101 113.600  80.076  1.00  0.00     0.132 C 
ATOM      6  C   UNL     1     112.352 112.864  80.552  1.00  0.00     0.127 C 
ATOM      7  C   UNL     1     111.858 111.389  80.450  1.00  0.00     0.155 C 
ATOM      8  C   UNL     1     108.992 113.160  79.100  1.00  0.00     0.160 C 
ATOM      9  C   UNL     1     110.937 111.659  78.411  1.00  0.00     0.009 C 
ATOM     10  C   UNL     1     110.878 114.654  79.022  1.00  0.00     0.230 C 
ATOM     11  C   UNL     1     111.903 110.959  79.014  1.00  0.00     0.004 C 
ENDROOT
BRANCH   6  12
ATOM     12  C   UNL     1     113.600 113.176  79.787  1.00  0.00     0.227 C 
ATOM     13  O   UNL     1     114.129 112.351  79.047  1.00  0.00    -0.275 OA
ATOM     14  N   UNL     1     114.063 114.456  80.040  1.00  0.00    -0.352 N 
ATOM     15  H   UNL     1     113.560 115.046  80.696  1.00  0.00     0.163 HD
BRANCH  14  16
ATOM     16  C   UNL     1     115.264 114.994  79.443  1.00  0.00     0.151 C 
BRANCH  16  17
ATOM     17  C   UNL     1     116.480 114.721  80.281  1.00  0.00    -0.025 A 
ATOM     18  C   UNL     1     117.349 113.686  79.926  1.00  0.00     0.056 A 
ATOM     19  C   UNL     1     116.732 115.509  81.416  1.00  0.00     0.009 A 
ATOM     20  C   UNL     1     118.452 113.473  80.727  1.00  0.00     0.166 A 
ATOM     21  C   UNL     1     117.856 115.272  82.211  1.00  0.00     0.051 A 
ATOM     22  O   UNL     1     119.402 112.516  80.539  1.00  0.00    -0.454 OA
ATOM     23  C   UNL     1     118.699 114.245  81.839  1.00  0.00     0.165 A 
ATOM     24  C   UNL     1     120.276 112.774  81.659  1.00  0.00     0.468 C 
ATOM     25  O   UNL     1     119.835 113.868  82.487  1.00  0.00    -0.454 OA
ENDBRANCH  16  17
ENDBRANCH  14  16
ENDBRANCH   6  12
BRANCH   3  26
ATOM     26  C   UNL     1     108.844 115.290  77.675  1.00  0.00     0.124 C 
BRANCH  26  27
ATOM     27  C   UNL     1     109.261 115.112  76.217  1.00  0.00     0.059 C 
BRANCH  27  28
ATOM     28  C   UNL     1     109.188 113.678  75.755  1.00  0.00    -0.021 A 
ATOM     29  C   UNL     1     108.069 112.806  75.869  1.00  0.00     0.003 A 
ATOM     30  C   UNL     1     110.204 112.978  75.143  1.00  0.00     0.087 A 
ATOM     31  C   UNL     1     108.445 111.582  75.313  1.00  0.00     0.046 A 
ATOM     32  C   UNL     1     106.769 112.943  76.393  1.00  0.00     0.010 A 
ATOM     33  N   UNL     1     109.746 111.715  74.881  1.00  0.00    -0.361 N 
ATOM     34  C   UNL     1     107.582 110.481  75.255  1.00  0.00     0.026 A 
ATOM     35  C   UNL     1     105.894 111.851  76.342  1.00  0.00     0.001 A 
ATOM     36  C   UNL     1     106.296 110.640  75.782  1.00  0.00     0.002 A 
ATOM     37  H   UNL     1     110.284 110.985  74.435  1.00  0.00     0.166 HD
ENDBRANCH  27  28
ENDBRANCH  26  27
ENDBRANCH   3  26
TORSDOF 6
ENDMDL
MODEL 4
REMARK VINA RESULT:     -10.9      1.466      1.685
REMARK SMILES O=C(NCc1ccc2c(c1)OCO2)[C@@H]1[C@@H]2C=C[C@@]3(CN(CCc4c[nH]c5ccccc45)C(=O)[C@H]13)O2
REMARK SMILES IDX 35 1 33 2 20 3 18 4 34 5 14 6 15 7 19 8 17 9 32 10 16 11
REMARK SMILES IDX 2 12 1 13 3 14 4 16 5 17 10 18 6 19 9 20 7 21 11 22 8 23
REMARK SMILES IDX 12 24 13 25 21 26 22 27 23 28 31 29 24 30 26 31 30 32 25 33
REMARK SMILES IDX 27 34 29 35 28 36
REMARK H PARENT 3 15 25 37
ROOT
ATOM      1  O   UNL     1     110.800 111.655  80.914  1.00  0.00    -0.360 OA
ATOM      2  O   UNL     1     110.066 114.812  77.652  1.00  0.00    -0.274 OA
ATOM      3  N   UNL     1     109.145 112.625  77.861  1.00  0.00    -0.339 N 
ATOM      4  C   UNL     1     110.511 111.908  79.539  1.00  0.00     0.117 C 
ATOM      5  C   UNL     1     110.351 113.437  79.647  1.00  0.00     0.132 C 
ATOM      6  C   UNL     1     111.594 113.827  80.444  1.00  0.00     0.127 C 
ATOM      7  C   UNL     1     112.071 112.419  80.916  1.00  0.00     0.155 C 
ATOM      8  C   UNL     1     109.252 111.514  78.816  1.00  0.00     0.160 C 
ATOM      9  C   UNL     1     111.802 111.463  78.892  1.00  0.00     0.009 C 
ATOM     10  C   UNL     1     109.894 113.763  78.248  1.00  0.00     0.230 C 
ATOM     11  C   UNL     1     112.767 111.735  79.776  1.00  0.00     0.004 C 
ENDROOT
BRANCH   6  12
ATOM     12  C   UNL     1     112.608 114.626  79.688  1.00  0.00     0.227 C 
ATOM     13  O   UNL     1     112.285 115.388  78.780  1.00  0.00    -0.275 OA
ATOM     14  N   UNL     1     113.899 114.378  80.120  1.00  0.00    -0.352 N 
ATOM     15  H   UNL     1     114.053 113.701  80.862  1.00  0.00     0.163 HD
BRANCH  14  16
ATOM     16  C   UNL     1     115.062 115.006  79.536  1.00  0.00     0.151 C 
BRANCH  16  17
ATOM     17  C   UNL     1     116.307 114.734  80.332  1.00  0.00    -0.025 A 
ATOM     18  C   UNL     1     117.160 113.695  79.952  1.00  0.00     0.056 A 
ATOM     19  C   UNL     1     116.602 115.528  81.453  1.00  0.00     0.009 A 
ATOM     20  C   UNL     1     118.291 113.483  80.713  1.00  0.00     0.166 A 
ATOM     21  C   UNL     1     117.753 115.292  82.208  1.00  0.00     0.051 A 
ATOM     22  O   UNL     1     119.230 112.523  80.497  1.00  0.00    -0.454 OA
ATOM     23  C   UNL     1     118.579 114.261  81.812  1.00  0.00     0.165 A 
ATOM     24  C   UNL     1     120.145 112.784  81.583  1.00  0.00     0.468 C 
ATOM     25  O   UNL     1     119.737 113.885  82.421  1.00  0.00    -0.454 OA
ENDBRANCH  16  17
ENDBRANCH  14  16
ENDBRANCH   6  12
BRANCH   3  26
ATOM     26  C   UNL     1     108.356 112.563  76.652  1.00  0.00     0.124 C 
BRANCH  26  27
ATOM     27  C   UNL     1     106.909 112.999  76.872  1.00  0.00     0.059 C 
BRANCH  27  28
ATOM     28  C   UNL     1     105.962 111.836  77.033  1.00  0.00    -0.021 A 
ATOM     29  C   UNL     1     104.893 111.737  77.968  1.00  0.00     0.003 A 
ATOM     30  C   UNL     1     105.981 110.675  76.294  1.00  0.00     0.087 A 
ATOM     31  C   UNL     1     104.285 110.497  77.765  1.00  0.00     0.046 A 
ATOM     32  C   UNL     1     104.385 112.586  78.971  1.00  0.00     0.010 A 
ATOM     33  N   UNL     1     104.966 109.874  76.742  1.00  0.00    -0.361 N 
ATOM     34  C   UNL     1     103.189 110.060  78.517  1.00  0.00     0.026 A 
ATOM     35  C   UNL     1     103.288 112.163  79.732  1.00  0.00     0.001 A 
ATOM     36  C   UNL     1     102.701 110.920  79.506  1.00  0.00     0.002 A 
ATOM     37  H   UNL     1     104.748 108.957  76.377  1.00  0.00     0.166 HD
ENDBRANCH  27  28
ENDBRANCH  26  27
ENDBRANCH   3  26
TORSDOF 6
ENDMDL
MODEL 5
REMARK VINA RESULT:     -10.9      2.455      4.014
REMARK SMILES O=C(NCc1ccc2c(c1)OCO2)[C@@H]1[C@@H]2C=C[C@@]3(CN(CCc4c[nH]c5ccccc45)C(=O)[C@H]13)O2
REMARK SMILES IDX 35 1 33 2 20 3 18 4 34 5 14 6 15 7 19 8 17 9 32 10 16 11
REMARK SMILES IDX 2 12 1 13 3 14 4 16 5 17 10 18 6 19 9 20 7 21 11 22 8 23
REMARK SMILES IDX 12 24 13 25 21 26 22 27 23 28 31 29 24 30 26 31 30 32 25 33
REMARK SMILES IDX 27 34 29 35 28 36
REMARK H PARENT 3 15 25 37
ROOT
ATOM      1  O   UNL     1     110.659 111.736  80.645  1.00  0.00    -0.360 OA
ATOM      2  O   UNL     1     110.001 115.310  77.827  1.00  0.00    -0.274 OA
ATOM      3  N   UNL     1     108.894 113.200  77.862  1.00  0.00    -0.339 N 
ATOM      4  C   UNL     1     110.300 112.174  79.334  1.00  0.00     0.117 C 
ATOM      5  C   UNL     1     110.294 113.687  79.625  1.00  0.00     0.132 C 
ATOM      6  C   UNL     1     111.621 113.871  80.359  1.00  0.00     0.127 C 
ATOM      7  C   UNL     1     111.994 112.381  80.630  1.00  0.00     0.155 C 
ATOM      8  C   UNL     1     108.962 111.979  78.675  1.00  0.00     0.160 C 
ATOM      9  C   UNL     1     111.495 111.700  78.540  1.00  0.00     0.009 C 
ATOM     10  C   UNL     1     109.773 114.216  78.313  1.00  0.00     0.230 C 
ATOM     11  C   UNL     1     112.541 111.781  79.369  1.00  0.00     0.004 C 
ENDROOT
BRANCH   6  12
ATOM     12  C   UNL     1     112.650 114.665  79.618  1.00  0.00     0.227 C 
ATOM     13  O   UNL     1     112.352 115.391  78.673  1.00  0.00    -0.275 OA
ATOM     14  N   UNL     1     113.927 114.455  80.110  1.00  0.00    -0.352 N 
ATOM     15  H   UNL     1     114.062 113.806  80.880  1.00  0.00     0.163 HD
BRANCH  14  16
ATOM     16  C   UNL     1     115.102 115.086  79.553  1.00  0.00     0.151 C 
BRANCH  16  17
ATOM     17  C   UNL     1     116.336 114.780  80.352  1.00  0.00    -0.025 A 
ATOM     18  C   UNL     1     117.179 113.739  79.955  1.00  0.00     0.056 A 
ATOM     19  C   UNL     1     116.633 115.545  81.493  1.00  0.00     0.009 A 
ATOM     20  C   UNL     1     118.301 113.495  80.720  1.00  0.00     0.166 A 
ATOM     21  C   UNL     1     117.775 115.277  82.251  1.00  0.00     0.051 A 
ATOM     22  O   UNL     1     119.230 112.528  80.490  1.00  0.00    -0.454 OA
ATOM     23  C   UNL     1     118.591 114.244  81.838  1.00  0.00     0.165 A 
ATOM     24  C   UNL     1     120.139 112.752  81.588  1.00  0.00     0.468 C 
ATOM     25  O   UNL     1     119.738 113.839  82.447  1.00  0.00    -0.454 OA
ENDBRANCH  16  17
ENDBRANCH  14  16
ENDBRANCH   6  12
BRANCH   3  26
ATOM     26  C   UNL     1     108.021 113.350  76.722  1.00  0.00     0.124 C 
BRANCH  26  27
ATOM     27  C   UNL     1     107.575 112.009  76.144  1.00  0.00     0.059 C 
BRANCH  27  28
ATOM     28  C   UNL     1     108.211 111.702  74.811  1.00  0.00    -0.021 A 
ATOM     29  C   UNL     1     109.515 111.172  74.596  1.00  0.00     0.003 A 
ATOM     30  C   UNL     1     107.626 111.887  73.579  1.00  0.00     0.087 A 
ATOM     31  C   UNL     1     109.685 111.050  73.216  1.00  0.00     0.046 A 
ATOM     32  C   UNL     1     110.569 110.786  75.446  1.00  0.00     0.010 A 
ATOM     33  N   UNL     1     108.522 111.490  72.623  1.00  0.00    -0.361 N 
ATOM     34  C   UNL     1     110.861 110.557  72.640  1.00  0.00     0.026 A 
ATOM     35  C   UNL     1     111.752 110.290  74.885  1.00  0.00     0.001 A 
ATOM     36  C   UNL     1     111.894 110.179  73.504  1.00  0.00     0.002 A 
ATOM     37  H   UNL     1     108.356 111.518  71.627  1.00  0.00     0.166 HD
ENDBRANCH  27  28
ENDBRANCH  26  27
ENDBRANCH   3  26
TORSDOF 6
ENDMDL
MODEL 6
REMARK VINA RESULT:     -10.8      2.372      3.735
REMARK SMILES O=C(NCc1ccc2c(c1)OCO2)[C@@H]1[C@@H]2C=C[C@@]3(CN(CCc4c[nH]c5ccccc45)C(=O)[C@H]13)O2
REMARK SMILES IDX 35 1 33 2 20 3 18 4 34 5 14 6 15 7 19 8 17 9 32 10 16 11
REMARK SMILES IDX 2 12 1 13 3 14 4 16 5 17 10 18 6 19 9 20 7 21 11 22 8 23
REMARK SMILES IDX 12 24 13 25 21 26 22 27 23 28 31 29 24 30 26 31 30 32 25 33
REMARK SMILES IDX 27 34 29 35 28 36
REMARK H PARENT 3 15 25 37
ROOT
ATOM      1  O   UNL     1     110.395 111.506  80.616  1.00  0.00    -0.360 OA
ATOM      2  O   UNL     1     111.593 115.471  78.619  1.00  0.00    -0.274 OA
ATOM      3  N   UNL     1     109.541 114.270  78.464  1.00  0.00    -0.339 N 
ATOM      4  C   UNL     1     110.260 112.361  79.480  1.00  0.00     0.117 C 
ATOM      5  C   UNL     1     111.069 113.551  80.030  1.00  0.00     0.132 C 
ATOM      6  C   UNL     1     112.325 112.861  80.556  1.00  0.00     0.127 C 
ATOM      7  C   UNL     1     111.867 111.372  80.495  1.00  0.00     0.155 C 
ATOM      8  C   UNL     1     108.991 113.030  79.026  1.00  0.00     0.160 C 
ATOM      9  C   UNL     1     110.984 111.551  78.429  1.00  0.00     0.009 C 
ATOM     10  C   UNL     1     110.845 114.563  78.936  1.00  0.00     0.230 C 
ATOM     11  C   UNL     1     111.952 110.895  79.076  1.00  0.00     0.004 C 
ENDROOT
BRANCH   6  12
ATOM     12  C   UNL     1     113.582 113.175  79.807  1.00  0.00     0.227 C 
ATOM     13  O   UNL     1     114.136 112.343  79.094  1.00  0.00    -0.275 OA
ATOM     14  N   UNL     1     114.022 114.467  80.040  1.00  0.00    -0.352 N 
ATOM     15  H   UNL     1     113.499 115.062  80.676  1.00  0.00     0.163 HD
BRANCH  14  16
ATOM     16  C   UNL     1     115.226 115.010  79.453  1.00  0.00     0.151 C 
BRANCH  16  17
ATOM     17  C   UNL     1     116.437 114.732  80.295  1.00  0.00    -0.025 A 
ATOM     18  C   UNL     1     117.309 113.700  79.938  1.00  0.00     0.056 A 
ATOM     19  C   UNL     1     116.684 115.514  81.437  1.00  0.00     0.009 A 
ATOM     20  C   UNL     1     118.408 113.483  80.743  1.00  0.00     0.166 A 
ATOM     21  C   UNL     1     117.804 115.273  82.236  1.00  0.00     0.051 A 
ATOM     22  O   UNL     1     119.360 112.528  80.555  1.00  0.00    -0.454 OA
ATOM     23  C   UNL     1     118.649 114.249  81.862  1.00  0.00     0.165 A 
ATOM     24  C   UNL     1     120.228 112.779  81.679  1.00  0.00     0.468 C 
ATOM     25  O   UNL     1     119.782 113.868  82.513  1.00  0.00    -0.454 OA
ENDBRANCH  16  17
ENDBRANCH  14  16
ENDBRANCH   6  12
BRANCH   3  26
ATOM     26  C   UNL     1     108.826 115.106  77.527  1.00  0.00     0.124 C 
BRANCH  26  27
ATOM     27  C   UNL     1     109.201 114.813  76.075  1.00  0.00     0.059 C 
BRANCH  27  28
ATOM     28  C   UNL     1     108.504 113.595  75.522  1.00  0.00    -0.021 A 
ATOM     29  C   UNL     1     108.955 112.775  74.449  1.00  0.00     0.003 A 
ATOM     30  C   UNL     1     107.310 113.078  75.972  1.00  0.00     0.087 A 
ATOM     31  C   UNL     1     108.004 111.767  74.276  1.00  0.00     0.046 A 
ATOM     32  C   UNL     1     110.083 112.795  73.606  1.00  0.00     0.010 A 
ATOM     33  N   UNL     1     107.017 111.976  75.214  1.00  0.00    -0.361 N 
ATOM     34  C   UNL     1     108.126 110.773  73.299  1.00  0.00     0.026 A 
ATOM     35  C   UNL     1     110.219 111.807  72.624  1.00  0.00     0.001 A 
ATOM     36  C   UNL     1     109.254 110.813  72.474  1.00  0.00     0.002 A 
ATOM     37  H   UNL     1     106.195 111.399  75.326  1.00  0.00     0.166 HD
ENDBRANCH  27  28
ENDBRANCH  26  27
ENDBRANCH   3  26
TORSDOF 6
ENDMDL
MODEL 7
REMARK VINA RESULT:     -10.7      2.482     10.657
REMARK SMILES O=C(NCc1ccc2c(c1)OCO2)[C@@H]1[C@@H]2C=C[C@@]3(CN(CCc4c[nH]c5ccccc45)C(=O)[C@H]13)O2
REMARK SMILES IDX 35 1 33 2 20 3 18 4 34 5 14 6 15 7 19 8 17 9 32 10 16 11
REMARK SMILES IDX 2 12 1 13 3 14 4 16 5 17 10 18 6 19 9 20 7 21 11 22 8 23
REMARK SMILES IDX 12 24 13 25 21 26 22 27 23 28 31 29 24 30 26 31 30 32 25 33
REMARK SMILES IDX 27 34 29 35 28 36
REMARK H PARENT 3 15 25 37
ROOT
ATOM      1  O   UNL     1     111.314 115.171  80.872  1.00  0.00    -0.360 OA
ATOM      2  O   UNL     1     111.836 111.691  77.912  1.00  0.00    -0.274 OA
ATOM      3  N   UNL     1     113.493 113.107  78.873  1.00  0.00    -0.339 N 
ATOM      4  C   UNL     1     112.062 114.631  79.782  1.00  0.00     0.117 C 
ATOM      5  C   UNL     1     111.354 113.264  79.713  1.00  0.00     0.132 C 
ATOM      6  C   UNL     1     109.883 113.669  79.748  1.00  0.00     0.127 C 
ATOM      7  C   UNL     1     110.021 115.171  80.146  1.00  0.00     0.155 C 
ATOM      8  C   UNL     1     113.511 114.230  79.820  1.00  0.00     0.160 C 
ATOM      9  C   UNL     1     111.677 115.585  78.675  1.00  0.00     0.009 C 
ATOM     10  C   UNL     1     112.196 112.572  78.672  1.00  0.00     0.230 C 
ATOM     11  C   UNL     1     110.421 115.960  78.936  1.00  0.00     0.004 C 
ENDROOT
BRANCH   6  12
ATOM     12  C   UNL     1     109.124 113.410  78.484  1.00  0.00     0.227 C 
ATOM     13  O   UNL     1     108.765 114.323  77.746  1.00  0.00    -0.275 OA
ATOM     14  N   UNL     1     108.876 112.062  78.290  1.00  0.00    -0.352 N 
ATOM     15  H   UNL     1     109.195 111.393  78.985  1.00  0.00     0.163 HD
BRANCH  14  16
ATOM     16  C   UNL     1     108.141 111.548  77.157  1.00  0.00     0.151 C 
BRANCH  16  17
ATOM     17  C   UNL     1     106.724 111.203  77.515  1.00  0.00    -0.025 A 
ATOM     18  C   UNL     1     106.162 111.709  78.689  1.00  0.00     0.056 A 
ATOM     19  C   UNL     1     105.975 110.373  76.663  1.00  0.00     0.009 A 
ATOM     20  C   UNL     1     104.857 111.364  78.976  1.00  0.00     0.166 A 
ATOM     21  C   UNL     1     104.656 110.038  76.976  1.00  0.00     0.051 A 
ATOM     22  O   UNL     1     104.148 111.759  80.068  1.00  0.00    -0.454 OA
ATOM     23  C   UNL     1     104.124 110.550  78.142  1.00  0.00     0.165 A 
ATOM     24  C   UNL     1     102.886 111.103  79.828  1.00  0.00     0.468 C 
ATOM     25  O   UNL     1     102.864 110.334  78.609  1.00  0.00    -0.454 OA
ENDBRANCH  16  17
ENDBRANCH  14  16
ENDBRANCH   6  12
BRANCH   3  26
ATOM     26  C   UNL     1     114.675 112.601  78.215  1.00  0.00     0.124 C 
BRANCH  26  27
ATOM     27  C   UNL     1     115.763 113.663  78.064  1.00  0.00     0.059 C 
BRANCH  27  28
ATOM     28  C   UNL     1     116.937 113.437  78.983  1.00  0.00    -0.021 A 
ATOM     29  C   UNL     1     117.212 114.132  80.194  1.00  0.00     0.003 A 
ATOM     30  C   UNL     1     117.940 112.512  78.793  1.00  0.00     0.087 A 
ATOM     31  C   UNL     1     118.394 113.600  80.713  1.00  0.00     0.046 A 
ATOM     32  C   UNL     1     116.567 115.166  80.900  1.00  0.00     0.010 A 
ATOM     33  N   UNL     1     118.814 112.618  79.842  1.00  0.00    -0.361 N 
ATOM     34  C   UNL     1     118.966 114.051  81.908  1.00  0.00     0.026 A 
ATOM     35  C   UNL     1     117.127 115.629  82.097  1.00  0.00     0.001 A 
ATOM     36  C   UNL     1     118.307 115.078  82.591  1.00  0.00     0.002 A 
ATOM     37  H   UNL     1     119.646 112.058  79.960  1.00  0.00     0.166 HD
ENDBRANCH  27  28
ENDBRANCH  26  27
ENDBRANCH   3  26
TORSDOF 6
ENDMDL
MODEL 8
REMARK VINA RESULT:     -10.7      3.556     10.715
REMARK SMILES O=C(NCc1ccc2c(c1)OCO2)[C@@H]1[C@@H]2C=C[C@@]3(CN(CCc4c[nH]c5ccccc45)C(=O)[C@H]13)O2
REMARK SMILES IDX 35 1 33 2 20 3 18 4 34 5 14 6 15 7 19 8 17 9 32 10 16 11
REMARK SMILES IDX 2 12 1 13 3 14 4 16 5 17 10 18 6 19 9 20 7 21 11 22 8 23
REMARK SMILES IDX 12 24 13 25 21 26 22 27 23 28 31 29 24 30 26 31 30 32 25 33
REMARK SMILES IDX 27 34 29 35 28 36
REMARK H PARENT 3 15 25 37
ROOT
ATOM      1  O   UNL     1     109.834 114.655  79.958  1.00  0.00    -0.360 OA
ATOM      2  O   UNL     1     113.008 112.196  77.717  1.00  0.00    -0.274 OA
ATOM      3  N   UNL     1     113.252 113.544  79.666  1.00  0.00    -0.339 N 
ATOM      4  C   UNL     1     111.204 114.541  79.571  1.00  0.00     0.117 C 
ATOM      5  C   UNL     1     111.110 113.149  78.917  1.00  0.00     0.132 C 
ATOM      6  C   UNL     1     109.881 113.303  78.025  1.00  0.00     0.127 C 
ATOM      7  C   UNL     1     109.314 114.650  78.569  1.00  0.00     0.155 C 
ATOM      8  C   UNL     1     112.371 114.368  80.505  1.00  0.00     0.160 C 
ATOM      9  C   UNL     1     111.317 115.682  78.588  1.00  0.00     0.009 C 
ATOM     10  C   UNL     1     112.564 112.891  78.613  1.00  0.00     0.230 C 
ATOM     11  C   UNL     1     110.120 115.781  78.003  1.00  0.00     0.004 C 
ENDROOT
BRANCH   6  12
ATOM     12  C   UNL     1     110.158 113.273  76.554  1.00  0.00     0.227 C 
ATOM     13  O   UNL     1     109.914 114.234  75.830  1.00  0.00    -0.275 OA
ATOM     14  N   UNL     1     110.679 112.058  76.144  1.00  0.00    -0.352 N 
ATOM     15  H   UNL     1     110.812 111.318  76.828  1.00  0.00     0.163 HD
BRANCH  14  16
ATOM     16  C   UNL     1     111.011 111.764  74.769  1.00  0.00     0.151 C 
BRANCH  16  17
ATOM     17  C   UNL     1     109.795 111.418  73.958  1.00  0.00    -0.025 A 
ATOM     18  C   UNL     1     109.819 111.578  72.570  1.00  0.00     0.056 A 
ATOM     19  C   UNL     1     108.643 110.937  74.603  1.00  0.00     0.009 A 
ATOM     20  C   UNL     1     108.678 111.248  71.868  1.00  0.00     0.166 A 
ATOM     21  C   UNL     1     107.501 110.611  73.869  1.00  0.00     0.051 A 
ATOM     22  O   UNL     1     108.516 111.339  70.520  1.00  0.00    -0.454 OA
ATOM     23  C   UNL     1     107.549 110.778  72.501  1.00  0.00     0.165 A 
ATOM     24  C   UNL     1     107.159 110.871  70.374  1.00  0.00     0.468 C 
ATOM     25  O   UNL     1     106.540 110.515  71.627  1.00  0.00    -0.454 OA
ENDBRANCH  16  17
ENDBRANCH  14  16
ENDBRANCH   6  12
BRANCH   3  26
ATOM     26  C   UNL     1     114.673 113.414  79.891  1.00  0.00     0.124 C 
BRANCH  26  27
ATOM     27  C   UNL     1     115.401 114.756  79.840  1.00  0.00     0.059 C 
BRANCH  27  28
ATOM     28  C   UNL     1     116.465 114.889  80.901  1.00  0.00    -0.021 A 
ATOM     29  C   UNL     1     117.681 114.154  80.978  1.00  0.00     0.003 A 
ATOM     30  C   UNL     1     116.427 115.751  81.974  1.00  0.00     0.087 A 
ATOM     31  C   UNL     1     118.358 114.600  82.115  1.00  0.00     0.046 A 
ATOM     32  C   UNL     1     118.272 113.150  80.187  1.00  0.00     0.010 A 
ATOM     33  N   UNL     1     117.574 115.569  82.700  1.00  0.00    -0.361 N 
ATOM     34  C   UNL     1     119.602 114.089  82.503  1.00  0.00     0.026 A 
ATOM     35  C   UNL     1     119.517 112.629  80.562  1.00  0.00     0.001 A 
ATOM     36  C   UNL     1     120.170 113.093  81.702  1.00  0.00     0.002 A 
ATOM     37  H   UNL     1     117.810 116.072  83.544  1.00  0.00     0.166 HD
ENDBRANCH  27  28
ENDBRANCH  26  27
ENDBRANCH   3  26
TORSDOF 6
ENDMDL
MODEL 9
REMARK VINA RESULT:     -10.6      3.237      5.878
REMARK SMILES O=C(NCc1ccc2c(c1)OCO2)[C@@H]1[C@@H]2C=C[C@@]3(CN(CCc4c[nH]c5ccccc45)C(=O)[C@H]13)O2
REMARK SMILES IDX 35 1 33 2 20 3 18 4 34 5 14 6 15 7 19 8 17 9 32 10 16 11
REMARK SMILES IDX 2 12 1 13 3 14 4 16 5 17 10 18 6 19 9 20 7 21 11 22 8 23
REMARK SMILES IDX 12 24 13 25 21 26 22 27 23 28 31 29 24 30 26 31 30 32 25 33
REMARK SMILES IDX 27 34 29 35 28 36
REMARK H PARENT 3 15 25 37
ROOT
ATOM      1  O   UNL     1     107.795 111.122  77.951  1.00  0.00    -0.360 OA
ATOM      2  O   UNL     1     109.022 115.041  75.884  1.00  0.00    -0.274 OA
ATOM      3  N   UNL     1     108.218 113.019  74.914  1.00  0.00    -0.339 N 
ATOM      4  C   UNL     1     108.361 111.736  76.793  1.00  0.00     0.117 C 
ATOM      5  C   UNL     1     108.124 113.201  77.209  1.00  0.00     0.132 C 
ATOM      6  C   UNL     1     108.650 113.209  78.642  1.00  0.00     0.127 C 
ATOM      7  C   UNL     1     108.801 111.677  78.889  1.00  0.00     0.155 C 
ATOM      8  C   UNL     1     107.777 111.707  75.407  1.00  0.00     0.160 C 
ATOM      9  C   UNL     1     109.798 111.283  76.906  1.00  0.00     0.009 C 
ATOM     10  C   UNL     1     108.565 113.915  75.957  1.00  0.00     0.230 C 
ATOM     11  C   UNL     1     110.052 111.197  78.215  1.00  0.00     0.004 C 
ENDROOT
BRANCH   6  12
ATOM     12  C   UNL     1     109.892 114.017  78.856  1.00  0.00     0.227 C 
ATOM     13  O   UNL     1     110.399 114.676  77.952  1.00  0.00    -0.275 OA
ATOM     14  N   UNL     1     110.375 113.902  80.148  1.00  0.00    -0.352 N 
ATOM     15  H   UNL     1     109.889 113.302  80.808  1.00  0.00     0.163 HD
BRANCH  14  16
ATOM     16  C   UNL     1     111.575 114.565  80.605  1.00  0.00     0.151 C 
BRANCH  16  17
ATOM     17  C   UNL     1     112.812 113.975  79.993  1.00  0.00    -0.025 A 
ATOM     18  C   UNL     1     113.710 114.800  79.310  1.00  0.00     0.056 A 
ATOM     19  C   UNL     1     113.056 112.596  80.111  1.00  0.00     0.009 A 
ATOM     20  C   UNL     1     114.833 114.212  78.764  1.00  0.00     0.166 A 
ATOM     21  C   UNL     1     114.200 112.025  79.548  1.00  0.00     0.051 A 
ATOM     22  O   UNL     1     115.811 114.853  78.068  1.00  0.00    -0.454 OA
ATOM     23  C   UNL     1     115.071 112.861  78.880  1.00  0.00     0.165 A 
ATOM     24  C   UNL     1     116.693 113.754  77.760  1.00  0.00     0.468 C 
ATOM     25  O   UNL     1     116.229 112.488  78.270  1.00  0.00    -0.454 OA
ENDBRANCH  16  17
ENDBRANCH  14  16
ENDBRANCH   6  12
BRANCH   3  26
ATOM     26  C   UNL     1     108.290 113.361  73.513  1.00  0.00     0.124 C 
BRANCH  26  27
ATOM     27  C   UNL     1     109.726 113.410  72.994  1.00  0.00     0.059 C 
BRANCH  27  28
ATOM     28  C   UNL     1     110.295 112.043  72.706  1.00  0.00    -0.021 A 
ATOM     29  C   UNL     1     111.295 111.365  73.458  1.00  0.00     0.003 A 
ATOM     30  C   UNL     1     109.933 111.227  71.658  1.00  0.00     0.087 A 
ATOM     31  C   UNL     1     111.513 110.135  72.834  1.00  0.00     0.046 A 
ATOM     32  C   UNL     1     112.036 111.681  74.613  1.00  0.00     0.010 A 
ATOM     33  N   UNL     1     110.673 110.078  71.744  1.00  0.00    -0.361 N 
ATOM     34  C   UNL     1     112.441 109.201  73.309  1.00  0.00     0.026 A 
ATOM     35  C   UNL     1     112.967 110.756  75.101  1.00  0.00     0.001 A 
ATOM     36  C   UNL     1     113.165 109.536  74.458  1.00  0.00     0.002 A 
ATOM     37  H   UNL     1     110.613 109.302  71.101  1.00  0.00     0.166 HD
ENDBRANCH  27  28
ENDBRANCH  26  27
ENDBRANCH   3  26
TORSDOF 6
ENDMDL
MODEL 10
REMARK VINA RESULT:     -10.6      3.239     10.411
REMARK SMILES O=C(NCc1ccc2c(c1)OCO2)[C@@H]1[C@@H]2C=C[C@@]3(CN(CCc4c[nH]c5ccccc45)C(=O)[C@H]13)O2
REMARK SMILES IDX 35 1 33 2 20 3 18 4 34 5 14 6 15 7 19 8 17 9 32 10 16 11
REMARK SMILES IDX 2 12 1 13 3 14 4 16 5 17 10 18 6 19 9 20 7 21 11 22 8 23
REMARK SMILES IDX 12 24 13 25 21 26 22 27 23 28 31 29 24 30 26 31 30 32 25 33
REMARK SMILES IDX 27 34 29 35 28 36
REMARK H PARENT 3 15 25 37
ROOT
ATOM      1  O   UNL     1     108.732 115.657  78.207  1.00  0.00    -0.360 OA
ATOM      2  O   UNL     1     111.289 112.170  79.769  1.00  0.00    -0.274 OA
ATOM      3  N   UNL     1     111.834 114.484  79.620  1.00  0.00    -0.339 N 
ATOM      4  C   UNL     1     110.042 115.110  78.359  1.00  0.00     0.117 C 
ATOM      5  C   UNL     1     109.649 113.886  79.208  1.00  0.00     0.132 C 
ATOM      6  C   UNL     1     108.469 113.322  78.419  1.00  0.00     0.127 C 
ATOM      7  C   UNL     1     108.205 114.504  77.436  1.00  0.00     0.155 C 
ATOM      8  C   UNL     1     111.157 115.708  79.172  1.00  0.00     0.160 C 
ATOM      9  C   UNL     1     110.381 114.786  76.923  1.00  0.00     0.009 C 
ATOM     10  C   UNL     1     111.011 113.333  79.538  1.00  0.00     0.230 C 
ATOM     11  C   UNL     1     109.225 114.460  76.338  1.00  0.00     0.004 C 
ENDROOT
BRANCH   6  12
ATOM     12  C   UNL     1     108.715 111.995  77.773  1.00  0.00     0.227 C 
ATOM     13  O   UNL     1     109.726 111.339  78.007  1.00  0.00    -0.275 OA
ATOM     14  N   UNL     1     107.702 111.643  76.897  1.00  0.00    -0.352 N 
ATOM     15  H   UNL     1     106.924 112.280  76.757  1.00  0.00     0.163 HD
BRANCH  14  16
ATOM     16  C   UNL     1     107.712 110.419  76.129  1.00  0.00     0.151 C 
BRANCH  16  17
ATOM     17  C   UNL     1     108.005 110.668  74.678  1.00  0.00    -0.025 A 
ATOM     18  C   UNL     1     107.082 110.276  73.706  1.00  0.00     0.056 A 
ATOM     19  C   UNL     1     109.209 111.294  74.310  1.00  0.00     0.009 A 
ATOM     20  C   UNL     1     107.396 110.526  72.385  1.00  0.00     0.166 A 
ATOM     21  C   UNL     1     109.503 111.535  72.966  1.00  0.00     0.051 A 
ATOM     22  O   UNL     1     106.624 110.216  71.309  1.00  0.00    -0.454 OA
ATOM     23  C   UNL     1     108.575 111.139  72.026  1.00  0.00     0.165 A 
ATOM     24  C   UNL     1     107.449 110.703  70.230  1.00  0.00     0.468 C 
ATOM     25  O   UNL     1     108.688 111.288  70.678  1.00  0.00    -0.454 OA
ENDBRANCH  16  17
ENDBRANCH  14  16
ENDBRANCH   6  12
BRANCH   3  26
ATOM     26  C   UNL     1     113.198 114.457  80.095  1.00  0.00     0.124 C 
BRANCH  26  27
ATOM     27  C   UNL     1     114.192 114.968  79.054  1.00  0.00     0.059 C 
BRANCH  27  28
ATOM     28  C   UNL     1     115.547 114.314  79.163  1.00  0.00    -0.021 A 
ATOM     29  C   UNL     1     116.514 114.532  80.185  1.00  0.00     0.003 A 
ATOM     30  C   UNL     1     116.069 113.393  78.283  1.00  0.00     0.087 A 
ATOM     31  C   UNL     1     117.612 113.722  79.890  1.00  0.00     0.046 A 
ATOM     32  C   UNL     1     116.558 115.342  81.336  1.00  0.00     0.010 A 
ATOM     33  N   UNL     1     117.314 113.042  78.730  1.00  0.00    -0.361 N 
ATOM     34  C   UNL     1     118.759 113.682  80.691  1.00  0.00     0.026 A 
ATOM     35  C   UNL     1     117.699 115.313  82.148  1.00  0.00     0.001 A 
ATOM     36  C   UNL     1     118.780 114.496  81.828  1.00  0.00     0.002 A 
ATOM     37  H   UNL     1     117.927 112.380  78.274  1.00  0.00     0.166 HD
ENDBRANCH  27  28
ENDBRANCH  26  27
ENDBRANCH   3  26
TORSDOF 6
ENDMDL
MODEL 11
REMARK VINA RESULT:     -10.6      3.289      9.706
REMARK SMILES O=C(NCc1ccc2c(c1)OCO2)[C@@H]1[C@@H]2C=C[C@@]3(CN(CCc4c[nH]c5ccccc45)C(=O)[C@H]13)O2
REMARK SMILES IDX 35 1 33 2 20 3 18 4 34 5 14 6 15 7 19 8 17 9 32 10 16 11
REMARK SMILES IDX 2 12 1 13 3 14 4 16 5 17 10 18 6 19 9 20 7 21 11 22 8 23
REMARK SMILES IDX 12 24 13 25 21 26 22 27 23 28 31 29 24 30 26 31 30 32 25 33
REMARK SMILES IDX 27 34 29 35 28 36
REMARK H PARENT 3 15 25 37
ROOT
ATOM      1  O   UNL     1     110.256 115.676  80.110  1.00  0.00    -0.360 OA
ATOM      2  O   UNL     1     111.161 111.381  78.738  1.00  0.00    -0.274 OA
ATOM      3  N   UNL     1     112.673 113.089  79.426  1.00  0.00    -0.339 N 
ATOM      4  C   UNL     1     111.168 114.800  79.445  1.00  0.00     0.117 C 
ATOM      5  C   UNL     1     110.425 113.482  79.736  1.00  0.00     0.132 C 
ATOM      6  C   UNL     1     108.992 113.836  79.347  1.00  0.00     0.127 C 
ATOM      7  C   UNL     1     109.120 115.384  79.203  1.00  0.00     0.155 C 
ATOM      8  C   UNL     1     112.566 114.476  79.896  1.00  0.00     0.160 C 
ATOM      9  C   UNL     1     111.036 115.285  78.020  1.00  0.00     0.009 C 
ATOM     10  C   UNL     1     111.414 112.485  79.188  1.00  0.00     0.230 C 
ATOM     11  C   UNL     1     109.772 115.697  77.888  1.00  0.00     0.004 C 
ENDROOT
BRANCH   6  12
ATOM     12  C   UNL     1     108.468 113.122  78.140  1.00  0.00     0.227 C 
ATOM     13  O   UNL     1     108.116 113.728  77.131  1.00  0.00    -0.275 OA
ATOM     14  N   UNL     1     108.418 111.751  78.324  1.00  0.00    -0.352 N 
ATOM     15  H   UNL     1     108.708 111.358  79.215  1.00  0.00     0.163 HD
BRANCH  14  16
ATOM     16  C   UNL     1     107.930 110.836  77.317  1.00  0.00     0.151 C 
BRANCH  16  17
ATOM     17  C   UNL     1     108.735 110.909  76.052  1.00  0.00    -0.025 A 
ATOM     18  C   UNL     1     108.095 111.164  74.836  1.00  0.00     0.056 A 
ATOM     19  C   UNL     1     110.127 110.721  76.102  1.00  0.00     0.009 A 
ATOM     20  C   UNL     1     108.877 111.222  73.701  1.00  0.00     0.166 A 
ATOM     21  C   UNL     1     110.895 110.783  74.938  1.00  0.00     0.051 A 
ATOM     22  O   UNL     1     108.432 111.457  72.436  1.00  0.00    -0.454 OA
ATOM     23  C   UNL     1     110.240 111.037  73.750  1.00  0.00     0.165 A 
ATOM     24  C   UNL     1     109.669 111.400  71.695  1.00  0.00     0.468 C 
ATOM     25  O   UNL     1     110.819 111.133  72.522  1.00  0.00    -0.454 OA
ENDBRANCH  16  17
ENDBRANCH  14  16
ENDBRANCH   6  12
BRANCH   3  26
ATOM     26  C   UNL     1     113.933 112.411  79.226  1.00  0.00     0.124 C 
BRANCH  26  27
ATOM     27  C   UNL     1     114.907 113.221  78.372  1.00  0.00     0.059 C 
BRANCH  27  28
ATOM     28  C   UNL     1     116.297 113.272  78.954  1.00  0.00    -0.021 A 
ATOM     29  C   UNL     1     116.728 114.067  80.054  1.00  0.00     0.003 A 
ATOM     30  C   UNL     1     117.382 112.551  78.509  1.00  0.00     0.087 A 
ATOM     31  C   UNL     1     118.084 113.799  80.247  1.00  0.00     0.046 A 
ATOM     32  C   UNL     1     116.091 114.990  80.905  1.00  0.00     0.010 A 
ATOM     33  N   UNL     1     118.455 112.875  79.295  1.00  0.00    -0.361 N 
ATOM     34  C   UNL     1     118.840 114.411  81.253  1.00  0.00     0.026 A 
ATOM     35  C   UNL     1     116.833 115.611  81.917  1.00  0.00     0.001 A 
ATOM     36  C   UNL     1     118.186 115.324  82.086  1.00  0.00     0.002 A 
ATOM     37  H   UNL     1     119.384 112.493  79.191  1.00  0.00     0.166 HD
ENDBRANCH  27  28
ENDBRANCH  26  27
ENDBRANCH   3  26
TORSDOF 6
ENDMDL
MODEL 12
REMARK VINA RESULT:     -10.5      2.797     10.659
REMARK SMILES O=C(NCc1ccc2c(c1)OCO2)[C@@H]1[C@@H]2C=C[C@@]3(CN(CCc4c[nH]c5ccccc45)C(=O)[C@H]13)O2
REMARK SMILES IDX 35 1 33 2 20 3 18 4 34 5 14 6 15 7 19 8 17 9 32 10 16 11
REMARK SMILES IDX 2 12 1 13 3 14 4 16 5 17 10 18 6 19 9 20 7 21 11 22 8 23
REMARK SMILES IDX 12 24 13 25 21 26 22 27 23 28 31 29 24 30 26 31 30 32 25 33
REMARK SMILES IDX 27 34 29 35 28 36
REMARK H PARENT 3 15 25 37
ROOT
ATOM      1  O   UNL     1     110.179 116.025  78.618  1.00  0.00    -0.360 OA
ATOM      2  O   UNL     1     111.716 112.098  80.450  1.00  0.00    -0.274 OA
ATOM      3  N   UNL     1     112.952 113.995  79.708  1.00  0.00    -0.339 N 
ATOM      4  C   UNL     1     111.227 115.057  78.662  1.00  0.00     0.117 C 
ATOM      5  C   UNL     1     110.661 114.203  79.813  1.00  0.00     0.132 C 
ATOM      6  C   UNL     1     109.209 114.013  79.377  1.00  0.00     0.127 C 
ATOM      7  C   UNL     1     109.131 115.054  78.219  1.00  0.00     0.155 C 
ATOM      8  C   UNL     1     112.637 115.306  79.124  1.00  0.00     0.160 C 
ATOM      9  C   UNL     1     111.089 114.427  77.296  1.00  0.00     0.009 C 
ATOM     10  C   UNL     1     111.797 113.235  80.021  1.00  0.00     0.230 C 
ATOM     11  C   UNL     1     109.787 114.475  77.000  1.00  0.00     0.004 C 
ENDROOT
BRANCH   6  12
ATOM     12  C   UNL     1     108.838 112.611  79.005  1.00  0.00     0.227 C 
ATOM     13  O   UNL     1     109.670 111.709  78.968  1.00  0.00    -0.275 OA
ATOM     14  N   UNL     1     107.493 112.490  78.700  1.00  0.00    -0.352 N 
ATOM     15  H   UNL     1     106.899 113.313  78.735  1.00  0.00     0.163 HD
BRANCH  14  16
ATOM     16  C   UNL     1     106.886 111.245  78.289  1.00  0.00     0.151 C 
BRANCH  16  17
ATOM     17  C   UNL     1     106.954 111.050  76.801  1.00  0.00    -0.025 A 
ATOM     18  C   UNL     1     107.457 112.071  75.991  1.00  0.00     0.056 A 
ATOM     19  C   UNL     1     106.509 109.842  76.238  1.00  0.00     0.009 A 
ATOM     20  C   UNL     1     107.500 111.846  74.630  1.00  0.00     0.166 A 
ATOM     21  C   UNL     1     106.562 109.640  74.856  1.00  0.00     0.051 A 
ATOM     22  O   UNL     1     107.955 112.719  73.690  1.00  0.00    -0.454 OA
ATOM     23  C   UNL     1     107.064 110.662  74.078  1.00  0.00     0.165 A 
ATOM     24  C   UNL     1     107.757 111.951  72.484  1.00  0.00     0.468 C 
ATOM     25  O   UNL     1     107.192 110.647  72.723  1.00  0.00    -0.454 OA
ENDBRANCH  16  17
ENDBRANCH  14  16
ENDBRANCH   6  12
BRANCH   3  26
ATOM     26  C   UNL     1     114.300 113.530  79.939  1.00  0.00     0.124 C 
BRANCH  26  27
ATOM     27  C   UNL     1     115.351 114.583  79.597  1.00  0.00     0.059 C 
BRANCH  27  28
ATOM     28  C   UNL     1     116.357 114.792  80.702  1.00  0.00    -0.021 A 
ATOM     29  C   UNL     1     117.594 114.106  80.863  1.00  0.00     0.003 A 
ATOM     30  C   UNL     1     116.235 115.688  81.740  1.00  0.00     0.087 A 
ATOM     31  C   UNL     1     118.197 114.616  82.014  1.00  0.00     0.046 A 
ATOM     32  C   UNL     1     118.259 113.099  80.138  1.00  0.00     0.010 A 
ATOM     33  N   UNL     1     117.350 115.574  82.526  1.00  0.00    -0.361 N 
ATOM     34  C   UNL     1     119.438 114.166  82.479  1.00  0.00     0.026 A 
ATOM     35  C   UNL     1     119.502 112.639  80.590  1.00  0.00     0.001 A 
ATOM     36  C   UNL     1     120.080 113.166  81.743  1.00  0.00     0.002 A 
ATOM     37  H   UNL     1     117.526 116.114  83.362  1.00  0.00     0.166 HD
ENDBRANCH  27  28
ENDBRANCH  26  27
ENDBRANCH   3  26
TORSDOF 6
ENDMDL
MODEL 13
REMARK VINA RESULT:     -10.4      3.205     10.177
REMARK SMILES O=C(NCc1ccc2c(c1)OCO2)[C@@H]1[C@@H]2C=C[C@@]3(CN(CCc4c[nH]c5ccccc45)C(=O)[C@H]13)O2
REMARK SMILES IDX 35 1 33 2 20 3 18 4 34 5 14 6 15 7 19 8 17 9 32 10 16 11
REMARK SMILES IDX 2 12 1 13 3 14 4 16 5 17 10 18 6 19 9 20 7 21 11 22 8 23
REMARK SMILES IDX 12 24 13 25 21 26 22 27 23 28 31 29 24 30 26 31 30 32 25 33
REMARK SMILES IDX 27 34 29 35 28 36
REMARK H PARENT 3 15 25 37
ROOT
ATOM      1  O   UNL     1     108.755 115.679  78.198  1.00  0.00    -0.360 OA
ATOM      2  O   UNL     1     111.166 112.135  79.862  1.00  0.00    -0.274 OA
ATOM      3  N   UNL     1     111.820 114.412  79.612  1.00  0.00    -0.339 N 
ATOM      4  C   UNL     1     110.039 115.075  78.352  1.00  0.00     0.117 C 
ATOM      5  C   UNL     1     109.601 113.906  79.256  1.00  0.00     0.132 C 
ATOM      6  C   UNL     1     108.383 113.370  78.508  1.00  0.00     0.127 C 
ATOM      7  C   UNL     1     108.161 114.524  77.482  1.00  0.00     0.155 C 
ATOM      8  C   UNL     1     111.195 115.649  79.125  1.00  0.00     0.160 C 
ATOM      9  C   UNL     1     110.339 114.678  76.926  1.00  0.00     0.009 C 
ATOM     10  C   UNL     1     110.941 113.300  79.588  1.00  0.00     0.230 C 
ATOM     11  C   UNL     1     109.159 114.385  76.372  1.00  0.00     0.004 C 
ENDROOT
BRANCH   6  12
ATOM     12  C   UNL     1     108.554 112.008  77.912  1.00  0.00     0.227 C 
ATOM     13  O   UNL     1     109.571 111.343  78.097  1.00  0.00    -0.275 OA
ATOM     14  N   UNL     1     107.467 111.633  77.141  1.00  0.00    -0.352 N 
ATOM     15  H   UNL     1     106.690 112.278  77.032  1.00  0.00     0.163 HD
BRANCH  14  16
ATOM     16  C   UNL     1     107.394 110.373  76.438  1.00  0.00     0.151 C 
BRANCH  16  17
ATOM     17  C   UNL     1     107.716 110.523  74.979  1.00  0.00    -0.025 A 
ATOM     18  C   UNL     1     108.801 111.310  74.585  1.00  0.00     0.056 A 
ATOM     19  C   UNL     1     106.920 109.871  74.021  1.00  0.00     0.009 A 
ATOM     20  C   UNL     1     109.057 111.418  73.233  1.00  0.00     0.166 A 
ATOM     21  C   UNL     1     107.200 109.997  72.658  1.00  0.00     0.051 A 
ATOM     22  O   UNL     1     110.064 112.137  72.666  1.00  0.00    -0.454 OA
ATOM     23  C   UNL     1     108.277 110.779  72.296  1.00  0.00     0.165 A 
ATOM     24  C   UNL     1     109.832 111.878  71.266  1.00  0.00     0.468 C 
ATOM     25  O   UNL     1     108.700 111.018  71.024  1.00  0.00    -0.454 OA
ENDBRANCH  16  17
ENDBRANCH  14  16
ENDBRANCH   6  12
BRANCH   3  26
ATOM     26  C   UNL     1     113.189 114.337  80.067  1.00  0.00     0.124 C 
BRANCH  26  27
ATOM     27  C   UNL     1     114.178 114.902  79.049  1.00  0.00     0.059 C 
BRANCH  27  28
ATOM     28  C   UNL     1     115.536 114.251  79.125  1.00  0.00    -0.021 A 
ATOM     29  C   UNL     1     116.521 114.459  80.131  1.00  0.00     0.003 A 
ATOM     30  C   UNL     1     116.044 113.344  78.222  1.00  0.00     0.087 A 
ATOM     31  C   UNL     1     117.616 113.657  79.804  1.00  0.00     0.046 A 
ATOM     32  C   UNL     1     116.585 115.254  81.291  1.00  0.00     0.010 A 
ATOM     33  N   UNL     1     117.299 112.991  78.641  1.00  0.00    -0.361 N 
ATOM     34  C   UNL     1     118.778 113.610  80.583  1.00  0.00     0.026 A 
ATOM     35  C   UNL     1     117.741 115.218  82.081  1.00  0.00     0.001 A 
ATOM     36  C   UNL     1     118.819 114.408  81.730  1.00  0.00     0.002 A 
ATOM     37  H   UNL     1     117.904 112.337  78.165  1.00  0.00     0.166 HD
ENDBRANCH  27  28
ENDBRANCH  26  27
ENDBRANCH   3  26
TORSDOF 6
ENDMDL
MODEL 14
REMARK VINA RESULT:     -10.4      3.144      4.661
REMARK SMILES O=C(NCc1ccc2c(c1)OCO2)[C@@H]1[C@@H]2C=C[C@@]3(CN(CCc4c[nH]c5ccccc45)C(=O)[C@H]13)O2
REMARK SMILES IDX 35 1 33 2 20 3 18 4 34 5 14 6 15 7 19 8 17 9 32 10 16 11
REMARK SMILES IDX 2 12 1 13 3 14 4 16 5 17 10 18 6 19 9 20 7 21 11 22 8 23
REMARK SMILES IDX 12 24 13 25 21 26 22 27 23 28 31 29 24 30 26 31 30 32 25 33
REMARK SMILES IDX 27 34 29 35 28 36
REMARK H PARENT 3 15 25 37
ROOT
ATOM      1  O   UNL     1     108.749 115.522  77.480  1.00  0.00    -0.360 OA
ATOM      2  O   UNL     1     110.883 111.532  76.659  1.00  0.00    -0.274 OA
ATOM      3  N   UNL     1     108.619 112.141  76.233  1.00  0.00    -0.339 N 
ATOM      4  C   UNL     1     108.636 114.101  77.397  1.00  0.00     0.117 C 
ATOM      5  C   UNL     1     110.060 113.818  76.880  1.00  0.00     0.132 C 
ATOM      6  C   UNL     1     110.912 114.650  77.836  1.00  0.00     0.127 C 
ATOM      7  C   UNL     1     109.802 115.501  78.524  1.00  0.00     0.155 C 
ATOM      8  C   UNL     1     107.790 113.341  76.412  1.00  0.00     0.160 C 
ATOM      9  C   UNL     1     108.422 113.750  78.851  1.00  0.00     0.009 C 
ATOM     10  C   UNL     1     109.968 112.336  76.623  1.00  0.00     0.230 C 
ATOM     11  C   UNL     1     109.108 114.657  79.551  1.00  0.00     0.004 C 
ENDROOT
BRANCH   6  12
ATOM     12  C   UNL     1     111.779 113.858  78.764  1.00  0.00     0.227 C 
ATOM     13  O   UNL     1     111.650 113.923  79.983  1.00  0.00    -0.275 OA
ATOM     14  N   UNL     1     112.716 113.098  78.085  1.00  0.00    -0.352 N 
ATOM     15  H   UNL     1     112.752 113.144  77.070  1.00  0.00     0.163 HD
BRANCH  14  16
ATOM     16  C   UNL     1     113.688 112.261  78.751  1.00  0.00     0.151 C 
BRANCH  16  17
ATOM     17  C   UNL     1     114.986 112.980  78.981  1.00  0.00    -0.025 A 
ATOM     18  C   UNL     1     115.167 113.726  80.148  1.00  0.00     0.056 A 
ATOM     19  C   UNL     1     116.007 112.896  78.020  1.00  0.00     0.009 A 
ATOM     20  C   UNL     1     116.377 114.370  80.316  1.00  0.00     0.166 A 
ATOM     21  C   UNL     1     117.222 113.558  78.213  1.00  0.00     0.051 A 
ATOM     22  O   UNL     1     116.731 115.138  81.381  1.00  0.00    -0.454 OA
ATOM     23  C   UNL     1     117.376 114.287  79.373  1.00  0.00     0.165 A 
ATOM     24  C   UNL     1     118.068 115.530  81.004  1.00  0.00     0.468 C 
ATOM     25  O   UNL     1     118.483 114.994  79.732  1.00  0.00    -0.454 OA
ENDBRANCH  16  17
ENDBRANCH  14  16
ENDBRANCH   6  12
BRANCH   3  26
ATOM     26  C   UNL     1     108.112 110.893  75.712  1.00  0.00     0.124 C 
BRANCH  26  27
ATOM     27  C   UNL     1     107.028 111.095  74.655  1.00  0.00     0.059 C 
BRANCH  27  28
ATOM     28  C   UNL     1     107.542 110.930  73.247  1.00  0.00    -0.021 A 
ATOM     29  C   UNL     1     108.274 111.890  72.493  1.00  0.00     0.003 A 
ATOM     30  C   UNL     1     107.382 109.812  72.459  1.00  0.00     0.087 A 
ATOM     31  C   UNL     1     108.542 111.317  71.249  1.00  0.00     0.046 A 
ATOM     32  C   UNL     1     108.735 113.195  72.752  1.00  0.00     0.010 A 
ATOM     33  N   UNL     1     107.989 110.055  71.256  1.00  0.00    -0.361 N 
ATOM     34  C   UNL     1     109.251 111.986  70.245  1.00  0.00     0.026 A 
ATOM     35  C   UNL     1     109.447 113.878  71.758  1.00  0.00     0.001 A 
ATOM     36  C   UNL     1     109.700 113.281  70.525  1.00  0.00     0.002 A 
ATOM     37  H   UNL     1     108.025 109.404  70.484  1.00  0.00     0.166 HD
ENDBRANCH  27  28
ENDBRANCH  26  27
ENDBRANCH   3  26
TORSDOF 6
ENDMDL
MODEL 15
REMARK VINA RESULT:     -10.4      3.196      9.527
REMARK SMILES O=C(NCc1ccc2c(c1)OCO2)[C@@H]1[C@@H]2C=C[C@@]3(CN(CCc4c[nH]c5ccccc45)C(=O)[C@H]13)O2
REMARK SMILES IDX 35 1 33 2 20 3 18 4 34 5 14 6 15 7 19 8 17 9 32 10 16 11
REMARK SMILES IDX 2 12 1 13 3 14 4 16 5 17 10 18 6 19 9 20 7 21 11 22 8 23
REMARK SMILES IDX 12 24 13 25 21 26 22 27 23 28 31 29 24 30 26 31 30 32 25 33
REMARK SMILES IDX 27 34 29 35 28 36
REMARK H PARENT 3 15 25 37
ROOT
ATOM      1  O   UNL     1     110.323 115.819  80.018  1.00  0.00    -0.360 OA
ATOM      2  O   UNL     1     111.056 111.450  78.784  1.00  0.00    -0.274 OA
ATOM      3  N   UNL     1     112.641 113.150  79.309  1.00  0.00    -0.339 N 
ATOM      4  C   UNL     1     111.175 114.895  79.340  1.00  0.00     0.117 C 
ATOM      5  C   UNL     1     110.424 113.607  79.730  1.00  0.00     0.132 C 
ATOM      6  C   UNL     1     108.978 113.978  79.408  1.00  0.00     0.127 C 
ATOM      7  C   UNL     1     109.130 115.515  79.190  1.00  0.00     0.155 C 
ATOM      8  C   UNL     1     112.590 114.557  79.724  1.00  0.00     0.160 C 
ATOM      9  C   UNL     1     110.971 115.322  77.905  1.00  0.00     0.009 C 
ATOM     10  C   UNL     1     111.357 112.565  79.170  1.00  0.00     0.230 C 
ATOM     11  C   UNL     1     109.710 115.758  77.829  1.00  0.00     0.004 C 
ENDROOT
BRANCH   6  12
ATOM     12  C   UNL     1     108.370 113.227  78.266  1.00  0.00     0.227 C 
ATOM     13  O   UNL     1     108.039 113.788  77.225  1.00  0.00    -0.275 OA
ATOM     14  N   UNL     1     108.220 111.879  78.546  1.00  0.00    -0.352 N 
ATOM     15  H   UNL     1     108.503 111.527  79.456  1.00  0.00     0.163 HD
BRANCH  14  16
ATOM     16  C   UNL     1     107.638 110.939  77.616  1.00  0.00     0.151 C 
BRANCH  16  17
ATOM     17  C   UNL     1     108.321 110.973  76.279  1.00  0.00    -0.025 A 
ATOM     18  C   UNL     1     109.696 110.742  76.196  1.00  0.00     0.056 A 
ATOM     19  C   UNL     1     107.569 111.239  75.122  1.00  0.00     0.009 A 
ATOM     20  C   UNL     1     110.278 110.784  74.946  1.00  0.00     0.166 A 
ATOM     21  C   UNL     1     108.183 111.277  73.868  1.00  0.00     0.051 A 
ATOM     22  O   UNL     1     111.596 110.585  74.672  1.00  0.00    -0.454 OA
ATOM     23  C   UNL     1     109.542 111.044  73.813  1.00  0.00     0.165 A 
ATOM     24  C   UNL     1     111.607 110.749  73.239  1.00  0.00     0.468 C 
ATOM     25  O   UNL     1     110.308 111.041  72.688  1.00  0.00    -0.454 OA
ENDBRANCH  16  17
ENDBRANCH  14  16
ENDBRANCH   6  12
BRANCH   3  26
ATOM     26  C   UNL     1     113.873 112.434  79.066  1.00  0.00     0.124 C 
BRANCH  26  27
ATOM     27  C   UNL     1     114.872 113.248  78.247  1.00  0.00     0.059 C 
BRANCH  27  28
ATOM     28  C   UNL     1     116.255 113.262  78.851  1.00  0.00    -0.021 A 
ATOM     29  C   UNL     1     116.685 114.036  79.965  1.00  0.00     0.003 A 
ATOM     30  C   UNL     1     117.330 112.521  78.415  1.00  0.00     0.087 A 
ATOM     31  C   UNL     1     118.032 113.736  80.177  1.00  0.00     0.046 A 
ATOM     32  C   UNL     1     116.055 114.965  80.816  1.00  0.00     0.010 A 
ATOM     33  N   UNL     1     118.397 112.813  79.221  1.00  0.00    -0.361 N 
ATOM     34  C   UNL     1     118.785 114.321  81.201  1.00  0.00     0.026 A 
ATOM     35  C   UNL     1     116.795 115.559  81.846  1.00  0.00     0.001 A 
ATOM     36  C   UNL     1     118.139 115.240  82.033  1.00  0.00     0.002 A 
ATOM     37  H   UNL     1     119.319 112.412  79.128  1.00  0.00     0.166 HD
ENDBRANCH  27  28
ENDBRANCH  26  27
ENDBRANCH   3  26
TORSDOF 6
ENDMDL
