MODEL 1
REMARK VINA RESULT:     -11.0      0.000      0.000
REMARK SMILES Cc1cccc(N(C)C(=O)c2cccc(S(=O)(=O)N3CCN(Cc4ccccc4)CC3)c2)c1C
REMARK SMILES IDX 15 1 32 2 14 3 11 4 13 5 12 6 16 7 17 8 18 9 19 10 20 11
REMARK SMILES IDX 31 12 21 13 30 14 22 15 23 16 24 17 25 18 29 19 26 20 28 21
REMARK SMILES IDX 27 22 9 23 10 24 7 25 8 26 6 27 33 28 5 29 2 30 4 31 3 32
REMARK SMILES IDX 34 33 1 34
REMARK H PARENT
ROOT
ATOM      1  C   UNL     1     110.489 113.511  79.286  1.00  0.00     0.083 A 
ATOM      2  C   UNL     1     110.295 113.169  77.947  1.00  0.00     0.035 A 
ATOM      3  C   UNL     1     109.901 114.666  79.804  1.00  0.00     0.022 A 
ATOM      4  C   UNL     1     109.513 113.982  77.127  1.00  0.00     0.041 A 
ATOM      5  C   UNL     1     109.120 115.478  78.982  1.00  0.00     0.002 A 
ATOM      6  C   UNL     1     108.926 115.137  77.644  1.00  0.00     0.014 A 
ENDROOT
BRANCH   1   7
ATOM      7  S   UNL     1     111.479 112.483  80.325  1.00  0.00     0.243 S 
ATOM      8  O   UNL     1     111.228 112.866  81.697  1.00  0.00    -0.207 OA
ATOM      9  O   UNL     1     111.307 111.113  79.890  1.00  0.00    -0.207 OA
BRANCH   7  10
ATOM     10  N   UNL     1     113.041 113.017  79.872  1.00  0.00    -0.195 NA
ATOM     11  C   UNL     1     113.228 114.495  79.837  1.00  0.00     0.118 C 
ATOM     12  C   UNL     1     113.616 112.367  78.660  1.00  0.00     0.118 C 
ATOM     13  C   UNL     1     114.715 114.819  79.692  1.00  0.00     0.101 C 
ATOM     14  C   UNL     1     115.095 112.731  78.538  1.00  0.00     0.101 C 
ATOM     15  N   UNL     1     115.273 114.190  78.487  1.00  0.00    -0.296 NA
BRANCH  15  16
ATOM     16  C   UNL     1     116.686 114.530  78.336  1.00  0.00     0.120 C 
BRANCH  16  17
ATOM     17  C   UNL     1     117.433 114.419  79.638  1.00  0.00    -0.034 A 
ATOM     18  C   UNL     1     118.125 113.248  79.948  1.00  0.00     0.005 A 
ATOM     19  C   UNL     1     117.432 115.488  80.535  1.00  0.00     0.005 A 
ATOM     20  C   UNL     1     118.817 113.146  81.155  1.00  0.00     0.000 A 
ATOM     21  C   UNL     1     118.124 115.384  81.742  1.00  0.00     0.000 A 
ATOM     22  C   UNL     1     118.816 114.214  82.052  1.00  0.00     0.000 A 
ENDBRANCH  16  17
ENDBRANCH  15  16
ENDBRANCH   7  10
ENDBRANCH   1   7
BRANCH   4  23
ATOM     23  C   UNL     1     109.310 113.626  75.732  1.00  0.00     0.258 C 
ATOM     24  O   UNL     1     109.441 114.546  74.911  1.00  0.00    -0.269 OA
BRANCH  23  25
ATOM     25  N   UNL     1     108.986 112.281  75.406  1.00  0.00    -0.311 N 
ATOM     26  C   UNL     1     107.848 111.608  76.052  1.00  0.00     0.153 C 
BRANCH  25  27
ATOM     27  C   UNL     1     109.785 111.566  74.428  1.00  0.00     0.047 A 
ATOM     28  C   UNL     1     110.880 110.795  74.821  1.00  0.00    -0.024 A 
ATOM     29  C   UNL     1     109.444 111.654  73.078  1.00  0.00     0.026 A 
ATOM     30  C   UNL     1     111.632 110.113  73.866  1.00  0.00    -0.046 A 
ATOM     31  C   UNL     1     110.196 110.972  72.123  1.00  0.00     0.002 A 
ATOM     32  C   UNL     1     111.290 110.201  72.516  1.00  0.00     0.004 A 
ATOM     33  C   UNL     1     111.250 110.698  76.269  1.00  0.00     0.047 C 
ATOM     34  C   UNL     1     112.808 109.281  74.260  1.00  0.00     0.044 C 
ENDBRANCH  25  27
ENDBRANCH  23  25
ENDBRANCH   4  23
TORSDOF 7
ENDMDL
MODEL 2
REMARK VINA RESULT:     -10.9      2.850      9.421
REMARK SMILES Cc1cccc(N(C)C(=O)c2cccc(S(=O)(=O)N3CCN(Cc4ccccc4)CC3)c2)c1C
REMARK SMILES IDX 15 1 32 2 14 3 11 4 13 5 12 6 16 7 17 8 18 9 19 10 20 11
REMARK SMILES IDX 31 12 21 13 30 14 22 15 23 16 24 17 25 18 29 19 26 20 28 21
REMARK SMILES IDX 27 22 9 23 10 24 7 25 8 26 6 27 33 28 5 29 2 30 4 31 3 32
REMARK SMILES IDX 34 33 1 34
REMARK H PARENT
ROOT
ATOM      1  C   UNL     1     110.295 114.698  78.182  1.00  0.00     0.083 A 
ATOM      2  C   UNL     1     111.606 114.251  78.350  1.00  0.00     0.035 A 
ATOM      3  C   UNL     1     109.571 115.163  79.279  1.00  0.00     0.022 A 
ATOM      4  C   UNL     1     112.192 114.268  79.615  1.00  0.00     0.041 A 
ATOM      5  C   UNL     1     110.158 115.180  80.545  1.00  0.00     0.002 A 
ATOM      6  C   UNL     1     111.468 114.733  80.713  1.00  0.00     0.014 A 
ENDROOT
BRANCH   1   7
ATOM      7  S   UNL     1     109.553 114.674  76.580  1.00  0.00     0.243 S 
ATOM      8  O   UNL     1     109.021 115.994  76.319  1.00  0.00    -0.207 OA
ATOM      9  O   UNL     1     110.487 114.052  75.666  1.00  0.00    -0.207 OA
BRANCH   7  10
ATOM     10  N   UNL     1     108.255 113.595  76.868  1.00  0.00    -0.195 NA
ATOM     11  C   UNL     1     108.487 112.586  77.939  1.00  0.00     0.118 C 
ATOM     12  C   UNL     1     107.656 112.973  75.653  1.00  0.00     0.118 C 
ATOM     13  C   UNL     1     107.171 111.884  78.273  1.00  0.00     0.101 C 
ATOM     14  C   UNL     1     106.356 112.265  76.031  1.00  0.00     0.101 C 
ATOM     15  N   UNL     1     106.593 111.258  77.076  1.00  0.00    -0.296 NA
BRANCH  15  16
ATOM     16  C   UNL     1     105.352 110.560  77.408  1.00  0.00     0.120 C 
BRANCH  16  17
ATOM     17  C   UNL     1     104.400 111.441  78.173  1.00  0.00    -0.034 A 
ATOM     18  C   UNL     1     104.219 111.249  79.542  1.00  0.00     0.005 A 
ATOM     19  C   UNL     1     103.699 112.450  77.511  1.00  0.00     0.005 A 
ATOM     20  C   UNL     1     103.336 112.065  80.250  1.00  0.00     0.000 A 
ATOM     21  C   UNL     1     102.816 113.265  78.220  1.00  0.00     0.000 A 
ATOM     22  C   UNL     1     102.635 113.072  79.589  1.00  0.00     0.000 A 
ENDBRANCH  16  17
ENDBRANCH  15  16
ENDBRANCH   7  10
ENDBRANCH   1   7
BRANCH   4  23
ATOM     23  C   UNL     1     113.558 113.802  79.790  1.00  0.00     0.258 C 
ATOM     24  O   UNL     1     113.688 112.633  80.184  1.00  0.00    -0.269 OA
BRANCH  23  25
ATOM     25  N   UNL     1     114.629 114.691  79.505  1.00  0.00    -0.311 N 
ATOM     26  C   UNL     1     114.542 115.630  78.375  1.00  0.00     0.153 C 
BRANCH  25  27
ATOM     27  C   UNL     1     115.820 114.672  80.335  1.00  0.00     0.047 A 
ATOM     28  C   UNL     1     116.887 113.823  80.039  1.00  0.00    -0.024 A 
ATOM     29  C   UNL     1     115.890 115.520  81.439  1.00  0.00     0.026 A 
ATOM     30  C   UNL     1     118.023 113.823  80.847  1.00  0.00    -0.046 A 
ATOM     31  C   UNL     1     117.026 115.521  82.247  1.00  0.00     0.002 A 
ATOM     32  C   UNL     1     118.093 114.672  81.952  1.00  0.00     0.004 A 
ATOM     33  C   UNL     1     116.815 112.910  78.854  1.00  0.00     0.047 C 
ATOM     34  C   UNL     1     119.179 112.924  80.553  1.00  0.00     0.044 C 
ENDBRANCH  25  27
ENDBRANCH  23  25
ENDBRANCH   4  23
TORSDOF 7
ENDMDL
MODEL 3
REMARK VINA RESULT:     -10.8      1.818      2.525
REMARK SMILES Cc1cccc(N(C)C(=O)c2cccc(S(=O)(=O)N3CCN(Cc4ccccc4)CC3)c2)c1C
REMARK SMILES IDX 15 1 32 2 14 3 11 4 13 5 12 6 16 7 17 8 18 9 19 10 20 11
REMARK SMILES IDX 31 12 21 13 30 14 22 15 23 16 24 17 25 18 29 19 26 20 28 21
REMARK SMILES IDX 27 22 9 23 10 24 7 25 8 26 6 27 33 28 5 29 2 30 4 31 3 32
REMARK SMILES IDX 34 33 1 34
REMARK H PARENT
ROOT
ATOM      1  C   UNL     1     108.632 113.688  78.245  1.00  0.00     0.083 A 
ATOM      2  C   UNL     1     108.531 113.536  76.862  1.00  0.00     0.035 A 
ATOM      3  C   UNL     1     108.106 112.715  79.095  1.00  0.00     0.022 A 
ATOM      4  C   UNL     1     107.904 112.411  76.329  1.00  0.00     0.041 A 
ATOM      5  C   UNL     1     107.478 111.590  78.560  1.00  0.00     0.002 A 
ATOM      6  C   UNL     1     107.377 111.437  77.178  1.00  0.00     0.014 A 
ENDROOT
BRANCH   1   7
ATOM      7  S   UNL     1     109.424 115.114  78.921  1.00  0.00     0.243 S 
ATOM      8  O   UNL     1     109.257 116.201  77.981  1.00  0.00    -0.207 OA
ATOM      9  O   UNL     1     109.000 115.248  80.298  1.00  0.00    -0.207 OA
BRANCH   7  10
ATOM     10  N   UNL     1     111.055 114.593  78.889  1.00  0.00    -0.195 NA
ATOM     11  C   UNL     1     111.453 113.668  79.987  1.00  0.00     0.118 C 
ATOM     12  C   UNL     1     112.068 115.666  78.687  1.00  0.00     0.118 C 
ATOM     13  C   UNL     1     112.829 113.075  79.682  1.00  0.00     0.101 C 
ATOM     14  C   UNL     1     113.431 115.036  78.406  1.00  0.00     0.101 C 
ATOM     15  N   UNL     1     113.827 114.137  79.500  1.00  0.00    -0.296 NA
BRANCH  15  16
ATOM     16  C   UNL     1     115.147 113.564  79.242  1.00  0.00     0.120 C 
BRANCH  16  17
ATOM     17  C   UNL     1     116.171 114.042  80.237  1.00  0.00    -0.034 A 
ATOM     18  C   UNL     1     117.360 113.334  80.409  1.00  0.00     0.005 A 
ATOM     19  C   UNL     1     115.928 115.193  80.988  1.00  0.00     0.005 A 
ATOM     20  C   UNL     1     118.308 113.777  81.332  1.00  0.00     0.000 A 
ATOM     21  C   UNL     1     116.877 115.634  81.911  1.00  0.00     0.000 A 
ATOM     22  C   UNL     1     118.066 114.927  82.083  1.00  0.00     0.000 A 
ENDBRANCH  16  17
ENDBRANCH  15  16
ENDBRANCH   7  10
ENDBRANCH   1   7
BRANCH   4  23
ATOM     23  C   UNL     1     107.798 112.252  74.887  1.00  0.00     0.258 C 
ATOM     24  O   UNL     1     106.752 111.732  74.473  1.00  0.00    -0.269 OA
BRANCH  23  25
ATOM     25  N   UNL     1     108.872 112.692  74.067  1.00  0.00    -0.311 N 
ATOM     26  C   UNL     1     109.047 114.123  73.769  1.00  0.00     0.153 C 
BRANCH  25  27
ATOM     27  C   UNL     1     109.802 111.723  73.518  1.00  0.00     0.047 A 
ATOM     28  C   UNL     1     110.880 111.258  74.272  1.00  0.00    -0.024 A 
ATOM     29  C   UNL     1     109.606 111.255  72.219  1.00  0.00     0.026 A 
ATOM     30  C   UNL     1     111.760 110.323  73.727  1.00  0.00    -0.046 A 
ATOM     31  C   UNL     1     110.486 110.320  71.675  1.00  0.00     0.002 A 
ATOM     32  C   UNL     1     111.563 109.855  72.428  1.00  0.00     0.004 A 
ATOM     33  C   UNL     1     111.095 111.759  75.666  1.00  0.00     0.047 C 
ATOM     34  C   UNL     1     112.922 109.809  74.512  1.00  0.00     0.044 C 
ENDBRANCH  25  27
ENDBRANCH  23  25
ENDBRANCH   4  23
TORSDOF 7
ENDMDL
MODEL 4
REMARK VINA RESULT:     -10.8      0.615      1.567
REMARK SMILES Cc1cccc(N(C)C(=O)c2cccc(S(=O)(=O)N3CCN(Cc4ccccc4)CC3)c2)c1C
REMARK SMILES IDX 15 1 32 2 14 3 11 4 13 5 12 6 16 7 17 8 18 9 19 10 20 11
REMARK SMILES IDX 31 12 21 13 30 14 22 15 23 16 24 17 25 18 29 19 26 20 28 21
REMARK SMILES IDX 27 22 9 23 10 24 7 25 8 26 6 27 33 28 5 29 2 30 4 31 3 32
REMARK SMILES IDX 34 33 1 34
REMARK H PARENT
ROOT
ATOM      1  C   UNL     1     110.527 113.610  79.397  1.00  0.00     0.083 A 
ATOM      2  C   UNL     1     110.276 113.457  78.034  1.00  0.00     0.035 A 
ATOM      3  C   UNL     1     109.980 114.690  80.091  1.00  0.00     0.022 A 
ATOM      4  C   UNL     1     109.478 114.385  77.364  1.00  0.00     0.041 A 
ATOM      5  C   UNL     1     109.183 115.617  79.420  1.00  0.00     0.002 A 
ATOM      6  C   UNL     1     108.931 115.465  78.056  1.00  0.00     0.014 A 
ENDROOT
BRANCH   1   7
ATOM      7  S   UNL     1     111.538 112.438  80.245  1.00  0.00     0.243 S 
ATOM      8  O   UNL     1     111.332 112.621  81.666  1.00  0.00    -0.207 OA
ATOM      9  O   UNL     1     111.337 111.145  79.624  1.00  0.00    -0.207 OA
BRANCH   7  10
ATOM     10  N   UNL     1     113.091 113.022  79.825  1.00  0.00    -0.195 NA
ATOM     11  C   UNL     1     113.281 114.493  79.963  1.00  0.00     0.118 C 
ATOM     12  C   UNL     1     113.636 112.522  78.531  1.00  0.00     0.118 C 
ATOM     13  C   UNL     1     114.765 114.832  79.825  1.00  0.00     0.101 C 
ATOM     14  C   UNL     1     115.112 112.898  78.419  1.00  0.00     0.101 C 
ATOM     15  N   UNL     1     115.294 114.352  78.540  1.00  0.00    -0.296 NA
BRANCH  15  16
ATOM     16  C   UNL     1     116.704 114.707  78.399  1.00  0.00     0.120 C 
BRANCH  16  17
ATOM     17  C   UNL     1     117.472 114.480  79.674  1.00  0.00    -0.034 A 
ATOM     18  C   UNL     1     118.177 113.291  79.861  1.00  0.00     0.005 A 
ATOM     19  C   UNL     1     117.476 115.458  80.669  1.00  0.00     0.005 A 
ATOM     20  C   UNL     1     118.888 113.081  81.043  1.00  0.00     0.000 A 
ATOM     21  C   UNL     1     118.186 115.247  81.850  1.00  0.00     0.000 A 
ATOM     22  C   UNL     1     118.892 114.058  82.037  1.00  0.00     0.000 A 
ENDBRANCH  16  17
ENDBRANCH  15  16
ENDBRANCH   7  10
ENDBRANCH   1   7
BRANCH   4  23
ATOM     23  C   UNL     1     109.216 114.226  75.942  1.00  0.00     0.258 C 
ATOM     24  O   UNL     1     109.456 115.213  75.231  1.00  0.00    -0.269 OA
BRANCH  23  25
ATOM     25  N   UNL     1     108.718 112.982  75.470  1.00  0.00    -0.311 N 
ATOM     26  C   UNL     1     107.400 112.490  75.904  1.00  0.00     0.153 C 
BRANCH  25  27
ATOM     27  C   UNL     1     109.515 112.189  74.553  1.00  0.00     0.047 A 
ATOM     28  C   UNL     1     109.281 112.232  73.178  1.00  0.00    -0.024 A 
ATOM     29  C   UNL     1     110.529 111.378  75.062  1.00  0.00     0.026 A 
ATOM     30  C   UNL     1     110.062 111.464  72.313  1.00  0.00    -0.046 A 
ATOM     31  C   UNL     1     111.310 110.611  74.198  1.00  0.00     0.002 A 
ATOM     32  C   UNL     1     111.076 110.653  72.824  1.00  0.00     0.004 A 
ATOM     33  C   UNL     1     108.193 113.099  72.627  1.00  0.00     0.047 C 
ATOM     34  C   UNL     1     109.833 111.491  70.838  1.00  0.00     0.044 C 
ENDBRANCH  25  27
ENDBRANCH  23  25
ENDBRANCH   4  23
TORSDOF 7
ENDMDL
MODEL 5
REMARK VINA RESULT:     -10.7      2.018      8.721
REMARK SMILES Cc1cccc(N(C)C(=O)c2cccc(S(=O)(=O)N3CCN(Cc4ccccc4)CC3)c2)c1C
REMARK SMILES IDX 15 1 32 2 14 3 11 4 13 5 12 6 16 7 17 8 18 9 19 10 20 11
REMARK SMILES IDX 31 12 21 13 30 14 22 15 23 16 24 17 25 18 29 19 26 20 28 21
REMARK SMILES IDX 27 22 9 23 10 24 7 25 8 26 6 27 33 28 5 29 2 30 4 31 3 32
REMARK SMILES IDX 34 33 1 34
REMARK H PARENT
ROOT
ATOM      1  C   UNL     1     111.485 114.075  79.706  1.00  0.00     0.083 A 
ATOM      2  C   UNL     1     112.699 114.175  79.025  1.00  0.00     0.035 A 
ATOM      3  C   UNL     1     111.270 113.024  80.598  1.00  0.00     0.022 A 
ATOM      4  C   UNL     1     113.697 113.225  79.237  1.00  0.00     0.041 A 
ATOM      5  C   UNL     1     112.269 112.074  80.809  1.00  0.00     0.002 A 
ATOM      6  C   UNL     1     113.483 112.174  80.130  1.00  0.00     0.014 A 
ENDROOT
BRANCH   1   7
ATOM      7  S   UNL     1     110.220 115.276  79.436  1.00  0.00     0.243 S 
ATOM      8  O   UNL     1     109.368 115.293  80.606  1.00  0.00    -0.207 OA
ATOM      9  O   UNL     1     110.851 116.487  78.956  1.00  0.00    -0.207 OA
BRANCH   7  10
ATOM     10  N   UNL     1     109.377 114.538  78.141  1.00  0.00    -0.195 NA
ATOM     11  C   UNL     1     108.893 113.153  78.399  1.00  0.00     0.118 C 
ATOM     12  C   UNL     1     110.029 114.648  76.806  1.00  0.00     0.118 C 
ATOM     13  C   UNL     1     107.937 112.730  77.284  1.00  0.00     0.101 C 
ATOM     14  C   UNL     1     109.051 114.197  75.722  1.00  0.00     0.101 C 
ATOM     15  N   UNL     1     108.589 112.823  75.971  1.00  0.00    -0.296 NA
BRANCH  15  16
ATOM     16  C   UNL     1     107.682 112.386  74.913  1.00  0.00     0.120 C 
BRANCH  16  17
ATOM     17  C   UNL     1     108.423 112.007  73.658  1.00  0.00    -0.034 A 
ATOM     18  C   UNL     1     107.966 112.449  72.417  1.00  0.00     0.005 A 
ATOM     19  C   UNL     1     109.568 111.213  73.739  1.00  0.00     0.005 A 
ATOM     20  C   UNL     1     108.654 112.097  71.255  1.00  0.00     0.000 A 
ATOM     21  C   UNL     1     110.254 110.862  72.576  1.00  0.00     0.000 A 
ATOM     22  C   UNL     1     109.797 111.304  71.335  1.00  0.00     0.000 A 
ENDBRANCH  16  17
ENDBRANCH  15  16
ENDBRANCH   7  10
ENDBRANCH   1   7
BRANCH   4  23
ATOM     23  C   UNL     1     114.963 113.330  78.529  1.00  0.00     0.258 C 
ATOM     24  O   UNL     1     115.234 112.396  77.760  1.00  0.00    -0.269 OA
BRANCH  23  25
ATOM     25  N   UNL     1     115.785 114.467  78.754  1.00  0.00    -0.311 N 
ATOM     26  C   UNL     1     115.782 115.592  77.806  1.00  0.00     0.153 C 
BRANCH  25  27
ATOM     27  C   UNL     1     116.634 114.518  79.929  1.00  0.00     0.047 A 
ATOM     28  C   UNL     1     117.785 113.734  80.017  1.00  0.00    -0.024 A 
ATOM     29  C   UNL     1     116.289 115.368  80.980  1.00  0.00     0.026 A 
ATOM     30  C   UNL     1     118.590 113.800  81.154  1.00  0.00    -0.046 A 
ATOM     31  C   UNL     1     117.094 115.436  82.116  1.00  0.00     0.002 A 
ATOM     32  C   UNL     1     118.244 114.651  82.204  1.00  0.00     0.004 A 
ATOM     33  C   UNL     1     118.159 112.819  78.892  1.00  0.00     0.047 C 
ATOM     34  C   UNL     1     119.827 112.972  81.273  1.00  0.00     0.044 C 
ENDBRANCH  25  27
ENDBRANCH  23  25
ENDBRANCH   4  23
TORSDOF 7
ENDMDL
MODEL 6
REMARK VINA RESULT:     -10.7      1.227      1.586
REMARK SMILES Cc1cccc(N(C)C(=O)c2cccc(S(=O)(=O)N3CCN(Cc4ccccc4)CC3)c2)c1C
REMARK SMILES IDX 15 1 32 2 14 3 11 4 13 5 12 6 16 7 17 8 18 9 19 10 20 11
REMARK SMILES IDX 31 12 21 13 30 14 22 15 23 16 24 17 25 18 29 19 26 20 28 21
REMARK SMILES IDX 27 22 9 23 10 24 7 25 8 26 6 27 33 28 5 29 2 30 4 31 3 32
REMARK SMILES IDX 34 33 1 34
REMARK H PARENT
ROOT
ATOM      1  C   UNL     1     110.208 114.006  78.612  1.00  0.00     0.083 A 
ATOM      2  C   UNL     1     109.260 113.158  78.039  1.00  0.00     0.035 A 
ATOM      3  C   UNL     1     110.595 115.170  77.947  1.00  0.00     0.022 A 
ATOM      4  C   UNL     1     108.699 113.473  76.802  1.00  0.00     0.041 A 
ATOM      5  C   UNL     1     110.034 115.484  76.709  1.00  0.00     0.002 A 
ATOM      6  C   UNL     1     109.086 114.637  76.137  1.00  0.00     0.014 A 
ENDROOT
BRANCH   1   7
ATOM      7  S   UNL     1     110.920 113.606  80.177  1.00  0.00     0.243 S 
ATOM      8  O   UNL     1     110.643 114.700  81.082  1.00  0.00    -0.207 OA
ATOM      9  O   UNL     1     110.535 112.250  80.507  1.00  0.00    -0.207 OA
BRANCH   7  10
ATOM     10  N   UNL     1     112.581 113.628  79.764  1.00  0.00    -0.195 NA
ATOM     11  C   UNL     1     113.314 112.350  79.987  1.00  0.00     0.118 C 
ATOM     12  C   UNL     1     113.354 114.795  80.276  1.00  0.00     0.118 C 
ATOM     13  C   UNL     1     114.691 112.428  79.329  1.00  0.00     0.101 C 
ATOM     14  C   UNL     1     114.730 114.827  79.611  1.00  0.00     0.101 C 
ATOM     15  N   UNL     1     115.455 113.570  79.848  1.00  0.00    -0.296 NA
BRANCH  15  16
ATOM     16  C   UNL     1     116.783 113.621  79.240  1.00  0.00     0.120 C 
BRANCH  16  17
ATOM     17  C   UNL     1     117.876 113.629  80.276  1.00  0.00    -0.034 A 
ATOM     18  C   UNL     1     118.930 112.721  80.186  1.00  0.00     0.005 A 
ATOM     19  C   UNL     1     117.832 114.546  81.327  1.00  0.00     0.005 A 
ATOM     20  C   UNL     1     119.942 112.729  81.146  1.00  0.00     0.000 A 
ATOM     21  C   UNL     1     118.844 114.553  82.287  1.00  0.00     0.000 A 
ATOM     22  C   UNL     1     119.898 113.644  82.197  1.00  0.00     0.000 A 
ENDBRANCH  16  17
ENDBRANCH  15  16
ENDBRANCH   7  10
ENDBRANCH   1   7
BRANCH   4  23
ATOM     23  C   UNL     1     107.711 112.589  76.206  1.00  0.00     0.258 C 
ATOM     24  O   UNL     1     106.564 113.050  76.098  1.00  0.00    -0.269 OA
BRANCH  23  25
ATOM     25  N   UNL     1     108.110 111.290  75.792  1.00  0.00    -0.311 N 
ATOM     26  C   UNL     1     107.455 110.094  76.346  1.00  0.00     0.153 C 
BRANCH  25  27
ATOM     27  C   UNL     1     109.174 111.141  74.816  1.00  0.00     0.047 A 
ATOM     28  C   UNL     1     110.436 110.684  75.196  1.00  0.00    -0.024 A 
ATOM     29  C   UNL     1     108.919 111.459  73.483  1.00  0.00     0.026 A 
ATOM     30  C   UNL     1     111.444 110.545  74.241  1.00  0.00    -0.046 A 
ATOM     31  C   UNL     1     109.926 111.319  72.528  1.00  0.00     0.002 A 
ATOM     32  C   UNL     1     111.188 110.863  72.907  1.00  0.00     0.004 A 
ATOM     33  C   UNL     1     110.715 110.343  76.627  1.00  0.00     0.047 C 
ATOM     34  C   UNL     1     112.804 110.058  74.620  1.00  0.00     0.044 C 
ENDBRANCH  25  27
ENDBRANCH  23  25
ENDBRANCH   4  23
TORSDOF 7
ENDMDL
MODEL 7
REMARK VINA RESULT:     -10.7      2.929      9.718
REMARK SMILES Cc1cccc(N(C)C(=O)c2cccc(S(=O)(=O)N3CCN(Cc4ccccc4)CC3)c2)c1C
REMARK SMILES IDX 15 1 32 2 14 3 11 4 13 5 12 6 16 7 17 8 18 9 19 10 20 11
REMARK SMILES IDX 31 12 21 13 30 14 22 15 23 16 24 17 25 18 29 19 26 20 28 21
REMARK SMILES IDX 27 22 9 23 10 24 7 25 8 26 6 27 33 28 5 29 2 30 4 31 3 32
REMARK SMILES IDX 34 33 1 34
REMARK H PARENT
ROOT
ATOM      1  C   UNL     1     111.491 112.516  77.412  1.00  0.00     0.083 A 
ATOM      2  C   UNL     1     112.713 112.197  78.004  1.00  0.00     0.035 A 
ATOM      3  C   UNL     1     110.882 113.741  77.684  1.00  0.00     0.022 A 
ATOM      4  C   UNL     1     113.326 113.103  78.869  1.00  0.00     0.041 A 
ATOM      5  C   UNL     1     111.496 114.646  78.550  1.00  0.00     0.002 A 
ATOM      6  C   UNL     1     112.718 114.328  79.142  1.00  0.00     0.014 A 
ENDROOT
BRANCH   1   7
ATOM      7  S   UNL     1     110.714 111.368  76.318  1.00  0.00     0.243 S 
ATOM      8  O   UNL     1     111.126 111.692  74.970  1.00  0.00    -0.207 OA
ATOM      9  O   UNL     1     110.908 110.038  76.858  1.00  0.00    -0.207 OA
BRANCH   7  10
ATOM     10  N   UNL     1     109.076 111.819  76.527  1.00  0.00    -0.195 NA
ATOM     11  C   UNL     1     108.421 111.305  77.762  1.00  0.00     0.118 C 
ATOM     12  C   UNL     1     108.203 111.636  75.332  1.00  0.00     0.118 C 
ATOM     13  C   UNL     1     107.074 112.000  77.955  1.00  0.00     0.101 C 
ATOM     14  C   UNL     1     106.860 112.326  75.571  1.00  0.00     0.101 C 
ATOM     15  N   UNL     1     106.211 111.803  76.782  1.00  0.00    -0.296 NA
BRANCH  15  16
ATOM     16  C   UNL     1     104.912 112.442  76.986  1.00  0.00     0.120 C 
BRANCH  16  17
ATOM     17  C   UNL     1     104.153 111.819  78.127  1.00  0.00    -0.034 A 
ATOM     18  C   UNL     1     104.060 112.484  79.349  1.00  0.00     0.005 A 
ATOM     19  C   UNL     1     103.543 110.574  77.961  1.00  0.00     0.005 A 
ATOM     20  C   UNL     1     103.356 111.906  80.406  1.00  0.00     0.000 A 
ATOM     21  C   UNL     1     102.840 109.997  79.019  1.00  0.00     0.000 A 
ATOM     22  C   UNL     1     102.747 110.663  80.240  1.00  0.00     0.000 A 
ENDBRANCH  16  17
ENDBRANCH  15  16
ENDBRANCH   7  10
ENDBRANCH   1   7
BRANCH   4  23
ATOM     23  C   UNL     1     114.600 112.771  79.486  1.00  0.00     0.258 C 
ATOM     24  O   UNL     1     114.606 111.769  80.216  1.00  0.00    -0.269 OA
BRANCH  23  25
ATOM     25  N   UNL     1     115.728 113.593  79.218  1.00  0.00    -0.311 N 
ATOM     26  C   UNL     1     116.158 113.846  77.834  1.00  0.00     0.153 C 
BRANCH  25  27
ATOM     27  C   UNL     1     116.463 114.186  80.320  1.00  0.00     0.047 A 
ATOM     28  C   UNL     1     117.737 113.731  80.659  1.00  0.00    -0.024 A 
ATOM     29  C   UNL     1     115.880 115.227  81.041  1.00  0.00     0.026 A 
ATOM     30  C   UNL     1     118.428 114.317  81.719  1.00  0.00    -0.046 A 
ATOM     31  C   UNL     1     116.570 115.815  82.101  1.00  0.00     0.002 A 
ATOM     32  C   UNL     1     117.844 115.359  82.441  1.00  0.00     0.004 A 
ATOM     33  C   UNL     1     118.367 112.613  79.888  1.00  0.00     0.047 C 
ATOM     34  C   UNL     1     119.793 113.850  82.104  1.00  0.00     0.044 C 
ENDBRANCH  25  27
ENDBRANCH  23  25
ENDBRANCH   4  23
TORSDOF 7
ENDMDL
MODEL 8
REMARK VINA RESULT:     -10.5      1.305      2.160
REMARK SMILES Cc1cccc(N(C)C(=O)c2cccc(S(=O)(=O)N3CCN(Cc4ccccc4)CC3)c2)c1C
REMARK SMILES IDX 15 1 32 2 14 3 11 4 13 5 12 6 16 7 17 8 18 9 19 10 20 11
REMARK SMILES IDX 31 12 21 13 30 14 22 15 23 16 24 17 25 18 29 19 26 20 28 21
REMARK SMILES IDX 27 22 9 23 10 24 7 25 8 26 6 27 33 28 5 29 2 30 4 31 3 32
REMARK SMILES IDX 34 33 1 34
REMARK H PARENT
ROOT
ATOM      1  C   UNL     1     110.162 113.913  78.610  1.00  0.00     0.083 A 
ATOM      2  C   UNL     1     109.167 113.082  78.095  1.00  0.00     0.035 A 
ATOM      3  C   UNL     1     110.585 115.027  77.885  1.00  0.00     0.022 A 
ATOM      4  C   UNL     1     108.596 113.364  76.855  1.00  0.00     0.041 A 
ATOM      5  C   UNL     1     110.013 115.309  76.644  1.00  0.00     0.002 A 
ATOM      6  C   UNL     1     109.019 114.478  76.129  1.00  0.00     0.014 A 
ENDROOT
BRANCH   1   7
ATOM      7  S   UNL     1     110.886 113.555  80.180  1.00  0.00     0.243 S 
ATOM      8  O   UNL     1     110.610 114.670  81.060  1.00  0.00    -0.207 OA
ATOM      9  O   UNL     1     110.511 112.206  80.546  1.00  0.00    -0.207 OA
BRANCH   7  10
ATOM     10  N   UNL     1     112.545 113.575  79.755  1.00  0.00    -0.195 NA
ATOM     11  C   UNL     1     113.278 112.297  79.975  1.00  0.00     0.118 C 
ATOM     12  C   UNL     1     113.322 114.742  80.259  1.00  0.00     0.118 C 
ATOM     13  C   UNL     1     114.650 112.373  79.306  1.00  0.00     0.101 C 
ATOM     14  C   UNL     1     114.693 114.772  79.585  1.00  0.00     0.101 C 
ATOM     15  N   UNL     1     115.419 113.515  79.818  1.00  0.00    -0.296 NA
BRANCH  15  16
ATOM     16  C   UNL     1     116.743 113.564  79.200  1.00  0.00     0.120 C 
BRANCH  16  17
ATOM     17  C   UNL     1     117.842 113.599  80.229  1.00  0.00    -0.034 A 
ATOM     18  C   UNL     1     118.904 112.699  80.146  1.00  0.00     0.005 A 
ATOM     19  C   UNL     1     117.797 114.532  81.265  1.00  0.00     0.005 A 
ATOM     20  C   UNL     1     119.922 112.731  81.099  1.00  0.00     0.000 A 
ATOM     21  C   UNL     1     118.815 114.564  82.218  1.00  0.00     0.000 A 
ATOM     22  C   UNL     1     119.876 113.664  82.135  1.00  0.00     0.000 A 
ENDBRANCH  16  17
ENDBRANCH  15  16
ENDBRANCH   7  10
ENDBRANCH   1   7
BRANCH   4  23
ATOM     23  C   UNL     1     107.559 112.498  76.318  1.00  0.00     0.258 C 
ATOM     24  O   UNL     1     106.407 112.958  76.329  1.00  0.00    -0.269 OA
BRANCH  23  25
ATOM     25  N   UNL     1     107.921 111.216  75.826  1.00  0.00    -0.311 N 
ATOM     26  C   UNL     1     107.124 110.028  76.173  1.00  0.00     0.153 C 
BRANCH  25  27
ATOM     27  C   UNL     1     109.086 111.076  74.973  1.00  0.00     0.047 A 
ATOM     28  C   UNL     1     108.995 111.275  73.595  1.00  0.00    -0.024 A 
ATOM     29  C   UNL     1     110.312 110.741  75.548  1.00  0.00     0.026 A 
ATOM     30  C   UNL     1     110.127 111.140  72.793  1.00  0.00    -0.046 A 
ATOM     31  C   UNL     1     111.445 110.605  74.747  1.00  0.00     0.002 A 
ATOM     32  C   UNL     1     111.353 110.804  73.369  1.00  0.00     0.004 A 
ATOM     33  C   UNL     1     107.681 111.635  72.972  1.00  0.00     0.047 C 
ATOM     34  C   UNL     1     110.057 111.347  71.315  1.00  0.00     0.044 C 
ENDBRANCH  25  27
ENDBRANCH  23  25
ENDBRANCH   4  23
TORSDOF 7
ENDMDL
MODEL 9
REMARK VINA RESULT:     -10.5      1.317      2.599
REMARK SMILES Cc1cccc(N(C)C(=O)c2cccc(S(=O)(=O)N3CCN(Cc4ccccc4)CC3)c2)c1C
REMARK SMILES IDX 15 1 32 2 14 3 11 4 13 5 12 6 16 7 17 8 18 9 19 10 20 11
REMARK SMILES IDX 31 12 21 13 30 14 22 15 23 16 24 17 25 18 29 19 26 20 28 21
REMARK SMILES IDX 27 22 9 23 10 24 7 25 8 26 6 27 33 28 5 29 2 30 4 31 3 32
REMARK SMILES IDX 34 33 1 34
REMARK H PARENT
ROOT
ATOM      1  C   UNL     1     110.123 113.902  78.662  1.00  0.00     0.083 A 
ATOM      2  C   UNL     1     110.164 113.410  77.357  1.00  0.00     0.035 A 
ATOM      3  C   UNL     1     109.503 115.123  78.928  1.00  0.00     0.022 A 
ATOM      4  C   UNL     1     109.585 114.139  76.319  1.00  0.00     0.041 A 
ATOM      5  C   UNL     1     108.925 115.852  77.889  1.00  0.00     0.002 A 
ATOM      6  C   UNL     1     108.965 115.361  76.585  1.00  0.00     0.014 A 
ENDROOT
BRANCH   1   7
ATOM      7  S   UNL     1     110.857 112.979  79.976  1.00  0.00     0.243 S 
ATOM      8  O   UNL     1     110.565 113.665  81.216  1.00  0.00    -0.207 OA
ATOM      9  O   UNL     1     110.504 111.587  79.794  1.00  0.00    -0.207 OA
BRANCH   7  10
ATOM     10  N   UNL     1     112.514 113.187  79.598  1.00  0.00    -0.195 NA
ATOM     11  C   UNL     1     113.427 112.129  80.115  1.00  0.00     0.118 C 
ATOM     12  C   UNL     1     113.063 114.550  79.848  1.00  0.00     0.118 C 
ATOM     13  C   UNL     1     114.807 112.290  79.480  1.00  0.00     0.101 C 
ATOM     14  C   UNL     1     114.450 114.665  79.218  1.00  0.00     0.101 C 
ATOM     15  N   UNL     1     115.352 113.629  79.743  1.00  0.00    -0.296 NA
BRANCH  15  16
ATOM     16  C   UNL     1     116.686 113.766  79.162  1.00  0.00     0.120 C 
BRANCH  16  17
ATOM     17  C   UNL     1     117.761 113.758  80.216  1.00  0.00    -0.034 A 
ATOM     18  C   UNL     1     117.748 114.711  81.234  1.00  0.00     0.005 A 
ATOM     19  C   UNL     1     118.771 112.796  80.173  1.00  0.00     0.005 A 
ATOM     20  C   UNL     1     118.744 114.703  82.210  1.00  0.00     0.000 A 
ATOM     21  C   UNL     1     119.767 112.789  81.150  1.00  0.00     0.000 A 
ATOM     22  C   UNL     1     119.754 113.742  82.167  1.00  0.00     0.000 A 
ENDBRANCH  16  17
ENDBRANCH  15  16
ENDBRANCH   7  10
ENDBRANCH   1   7
BRANCH   4  23
ATOM     23  C   UNL     1     109.627 113.627  74.959  1.00  0.00     0.258 C 
ATOM     24  O   UNL     1     109.440 114.458  74.058  1.00  0.00    -0.269 OA
BRANCH  23  25
ATOM     25  N   UNL     1     109.877 112.243  74.753  1.00  0.00    -0.311 N 
ATOM     26  C   UNL     1     111.256 111.733  74.688  1.00  0.00     0.153 C 
BRANCH  25  27
ATOM     27  C   UNL     1     108.762 111.326  74.604  1.00  0.00     0.047 A 
ATOM     28  C   UNL     1     108.385 110.853  73.347  1.00  0.00    -0.024 A 
ATOM     29  C   UNL     1     108.066 110.915  75.741  1.00  0.00     0.026 A 
ATOM     30  C   UNL     1     107.313 109.969  73.226  1.00  0.00    -0.046 A 
ATOM     31  C   UNL     1     106.995 110.031  75.621  1.00  0.00     0.002 A 
ATOM     32  C   UNL     1     106.617 109.558  74.364  1.00  0.00     0.004 A 
ATOM     33  C   UNL     1     109.129 111.292  72.124  1.00  0.00     0.047 C 
ATOM     34  C   UNL     1     106.889 109.448  71.893  1.00  0.00     0.044 C 
ENDBRANCH  25  27
ENDBRANCH  23  25
ENDBRANCH   4  23
TORSDOF 7
ENDMDL
MODEL 10
REMARK VINA RESULT:     -10.5      1.976      9.146
REMARK SMILES Cc1cccc(N(C)C(=O)c2cccc(S(=O)(=O)N3CCN(Cc4ccccc4)CC3)c2)c1C
REMARK SMILES IDX 15 1 32 2 14 3 11 4 13 5 12 6 16 7 17 8 18 9 19 10 20 11
REMARK SMILES IDX 31 12 21 13 30 14 22 15 23 16 24 17 25 18 29 19 26 20 28 21
REMARK SMILES IDX 27 22 9 23 10 24 7 25 8 26 6 27 33 28 5 29 2 30 4 31 3 32
REMARK SMILES IDX 34 33 1 34
REMARK H PARENT
ROOT
ATOM      1  C   UNL     1     110.909 114.867  78.678  1.00  0.00     0.083 A 
ATOM      2  C   UNL     1     112.216 114.460  78.413  1.00  0.00     0.035 A 
ATOM      3  C   UNL     1     110.414 114.820  79.981  1.00  0.00     0.022 A 
ATOM      4  C   UNL     1     113.028 114.005  79.451  1.00  0.00     0.041 A 
ATOM      5  C   UNL     1     111.226 114.364  81.019  1.00  0.00     0.002 A 
ATOM      6  C   UNL     1     112.534 113.956  80.755  1.00  0.00     0.014 A 
ENDROOT
BRANCH   1   7
ATOM      7  S   UNL     1     109.880 115.442  77.364  1.00  0.00     0.243 S 
ATOM      8  O   UNL     1     108.523 115.511  77.861  1.00  0.00    -0.207 OA
ATOM      9  O   UNL     1     110.517 116.601  76.774  1.00  0.00    -0.207 OA
BRANCH   7  10
ATOM     10  N   UNL     1     110.013 114.123  76.281  1.00  0.00    -0.195 NA
ATOM     11  C   UNL     1     109.414 114.337  74.934  1.00  0.00     0.118 C 
ATOM     12  C   UNL     1     109.635 112.794  76.840  1.00  0.00     0.118 C 
ATOM     13  C   UNL     1     109.842 113.206  73.999  1.00  0.00     0.101 C 
ATOM     14  C   UNL     1     110.060 111.693  75.869  1.00  0.00     0.101 C 
ATOM     15  N   UNL     1     109.453 111.899  74.546  1.00  0.00    -0.296 NA
BRANCH  15  16
ATOM     16  C   UNL     1     109.835 110.824  73.632  1.00  0.00     0.120 C 
BRANCH  16  17
ATOM     17  C   UNL     1     109.012 110.839  72.371  1.00  0.00    -0.034 A 
ATOM     18  C   UNL     1     109.521 111.425  71.213  1.00  0.00     0.005 A 
ATOM     19  C   UNL     1     107.739 110.267  72.364  1.00  0.00     0.005 A 
ATOM     20  C   UNL     1     108.757 111.439  70.045  1.00  0.00     0.000 A 
ATOM     21  C   UNL     1     106.976 110.282  71.196  1.00  0.00     0.000 A 
ATOM     22  C   UNL     1     107.485 110.868  70.038  1.00  0.00     0.000 A 
ENDBRANCH  16  17
ENDBRANCH  15  16
ENDBRANCH   7  10
ENDBRANCH   1   7
BRANCH   4  23
ATOM     23  C   UNL     1     114.391 113.580  79.175  1.00  0.00     0.258 C 
ATOM     24  O   UNL     1     114.557 112.364  79.000  1.00  0.00    -0.269 OA
BRANCH  23  25
ATOM     25  N   UNL     1     115.419 114.560  79.123  1.00  0.00    -0.311 N 
ATOM     26  C   UNL     1     115.475 115.527  78.015  1.00  0.00     0.153 C 
BRANCH  25  27
ATOM     27  C   UNL     1     116.422 114.607  80.171  1.00  0.00     0.047 A 
ATOM     28  C   UNL     1     117.565 113.810  80.105  1.00  0.00    -0.024 A 
ATOM     29  C   UNL     1     116.232 115.465  81.253  1.00  0.00     0.026 A 
ATOM     30  C   UNL     1     118.519 113.872  81.121  1.00  0.00    -0.046 A 
ATOM     31  C   UNL     1     117.186 115.529  82.269  1.00  0.00     0.002 A 
ATOM     32  C   UNL     1     118.329 114.732  82.204  1.00  0.00     0.004 A 
ATOM     33  C   UNL     1     117.773 112.885  78.946  1.00  0.00     0.047 C 
ATOM     34  C   UNL     1     119.752 113.030  81.076  1.00  0.00     0.044 C 
ENDBRANCH  25  27
ENDBRANCH  23  25
ENDBRANCH   4  23
TORSDOF 7
ENDMDL
MODEL 11
REMARK VINA RESULT:     -10.4      2.995      9.303
REMARK SMILES Cc1cccc(N(C)C(=O)c2cccc(S(=O)(=O)N3CCN(Cc4ccccc4)CC3)c2)c1C
REMARK SMILES IDX 15 1 32 2 14 3 11 4 13 5 12 6 16 7 17 8 18 9 19 10 20 11
REMARK SMILES IDX 31 12 21 13 30 14 22 15 23 16 24 17 25 18 29 19 26 20 28 21
REMARK SMILES IDX 27 22 9 23 10 24 7 25 8 26 6 27 33 28 5 29 2 30 4 31 3 32
REMARK SMILES IDX 34 33 1 34
REMARK H PARENT
ROOT
ATOM      1  C   UNL     1     111.197 112.253  77.551  1.00  0.00     0.083 A 
ATOM      2  C   UNL     1     111.921 113.350  78.017  1.00  0.00     0.035 A 
ATOM      3  C   UNL     1     111.133 111.085  78.310  1.00  0.00     0.022 A 
ATOM      4  C   UNL     1     112.583 113.279  79.242  1.00  0.00     0.041 A 
ATOM      5  C   UNL     1     111.795 111.014  79.536  1.00  0.00     0.002 A 
ATOM      6  C   UNL     1     112.520 112.110  80.003  1.00  0.00     0.014 A 
ENDROOT
BRANCH   1   7
ATOM      7  S   UNL     1     110.361 112.343  75.998  1.00  0.00     0.243 S 
ATOM      8  O   UNL     1     110.199 113.741  75.662  1.00  0.00    -0.207 OA
ATOM      9  O   UNL     1     111.015 111.428  75.087  1.00  0.00    -0.207 OA
BRANCH   7  10
ATOM     10  N   UNL     1     108.840 111.694  76.440  1.00  0.00    -0.195 NA
ATOM     11  C   UNL     1     108.076 111.045  75.338  1.00  0.00     0.118 C 
ATOM     12  C   UNL     1     107.969 112.592  77.250  1.00  0.00     0.118 C 
ATOM     13  C   UNL     1     106.888 110.280  75.921  1.00  0.00     0.101 C 
ATOM     14  C   UNL     1     106.784 111.798  77.797  1.00  0.00     0.101 C 
ATOM     15  N   UNL     1     106.024 111.173  76.705  1.00  0.00    -0.296 NA
BRANCH  15  16
ATOM     16  C   UNL     1     104.872 110.443  77.232  1.00  0.00     0.120 C 
BRANCH  16  17
ATOM     17  C   UNL     1     104.064 111.283  78.186  1.00  0.00    -0.034 A 
ATOM     18  C   UNL     1     103.488 112.476  77.749  1.00  0.00     0.005 A 
ATOM     19  C   UNL     1     103.894 110.867  79.507  1.00  0.00     0.005 A 
ATOM     20  C   UNL     1     102.740 113.254  78.634  1.00  0.00     0.000 A 
ATOM     21  C   UNL     1     103.146 111.646  80.390  1.00  0.00     0.000 A 
ATOM     22  C   UNL     1     102.570 112.839  79.954  1.00  0.00     0.000 A 
ENDBRANCH  16  17
ENDBRANCH  15  16
ENDBRANCH   7  10
ENDBRANCH   1   7
BRANCH   4  23
ATOM     23  C   UNL     1     113.338 114.422  79.729  1.00  0.00     0.258 C 
ATOM     24  O   UNL     1     112.950 114.914  80.799  1.00  0.00    -0.269 OA
BRANCH  23  25
ATOM     25  N   UNL     1     114.444 114.889  78.969  1.00  0.00    -0.311 N 
ATOM     26  C   UNL     1     114.348 116.138  78.198  1.00  0.00     0.153 C 
BRANCH  25  27
ATOM     27  C   UNL     1     115.679 114.126  78.954  1.00  0.00     0.047 A 
ATOM     28  C   UNL     1     116.618 114.261  79.977  1.00  0.00    -0.024 A 
ATOM     29  C   UNL     1     115.920 113.247  77.899  1.00  0.00     0.026 A 
ATOM     30  C   UNL     1     117.796 113.517  79.946  1.00  0.00    -0.046 A 
ATOM     31  C   UNL     1     117.098 112.502  77.867  1.00  0.00     0.002 A 
ATOM     32  C   UNL     1     118.037 112.637  78.889  1.00  0.00     0.004 A 
ATOM     33  C   UNL     1     116.364 115.205  81.112  1.00  0.00     0.047 C 
ATOM     34  C   UNL     1     118.818 113.642  81.028  1.00  0.00     0.044 C 
ENDBRANCH  25  27
ENDBRANCH  23  25
ENDBRANCH   4  23
TORSDOF 7
ENDMDL
MODEL 12
REMARK VINA RESULT:     -10.4      2.089      3.178
REMARK SMILES Cc1cccc(N(C)C(=O)c2cccc(S(=O)(=O)N3CCN(Cc4ccccc4)CC3)c2)c1C
REMARK SMILES IDX 15 1 32 2 14 3 11 4 13 5 12 6 16 7 17 8 18 9 19 10 20 11
REMARK SMILES IDX 31 12 21 13 30 14 22 15 23 16 24 17 25 18 29 19 26 20 28 21
REMARK SMILES IDX 27 22 9 23 10 24 7 25 8 26 6 27 33 28 5 29 2 30 4 31 3 32
REMARK SMILES IDX 34 33 1 34
REMARK H PARENT
ROOT
ATOM      1  C   UNL     1     108.656 113.631  78.233  1.00  0.00     0.083 A 
ATOM      2  C   UNL     1     108.044 113.418  76.998  1.00  0.00     0.035 A 
ATOM      3  C   UNL     1     108.660 112.619  79.194  1.00  0.00     0.022 A 
ATOM      4  C   UNL     1     107.434 112.194  76.724  1.00  0.00     0.041 A 
ATOM      5  C   UNL     1     108.049 111.396  78.919  1.00  0.00     0.002 A 
ATOM      6  C   UNL     1     107.436 111.182  77.684  1.00  0.00     0.014 A 
ENDROOT
BRANCH   1   7
ATOM      7  S   UNL     1     109.427 115.181  78.581  1.00  0.00     0.243 S 
ATOM      8  O   UNL     1     109.170 116.064  77.464  1.00  0.00    -0.207 OA
ATOM      9  O   UNL     1     109.070 115.562  79.931  1.00  0.00    -0.207 OA
BRANCH   7  10
ATOM     10  N   UNL     1     111.072 114.709  78.554  1.00  0.00    -0.195 NA
ATOM     11  C   UNL     1     111.452 113.652  79.532  1.00  0.00     0.118 C 
ATOM     12  C   UNL     1     112.060 115.825  78.547  1.00  0.00     0.118 C 
ATOM     13  C   UNL     1     112.857 113.141  79.213  1.00  0.00     0.101 C 
ATOM     14  C   UNL     1     113.452 115.273  78.246  1.00  0.00     0.101 C 
ATOM     15  N   UNL     1     113.830 114.242  79.224  1.00  0.00    -0.296 NA
BRANCH  15  16
ATOM     16  C   UNL     1     115.176 113.743  78.951  1.00  0.00     0.120 C 
BRANCH  16  17
ATOM     17  C   UNL     1     116.152 114.145  80.025  1.00  0.00    -0.034 A 
ATOM     18  C   UNL     1     117.352 113.451  80.173  1.00  0.00     0.005 A 
ATOM     19  C   UNL     1     115.854 115.213  80.872  1.00  0.00     0.005 A 
ATOM     20  C   UNL     1     118.256 113.824  81.168  1.00  0.00     0.000 A 
ATOM     21  C   UNL     1     116.758 115.585  81.868  1.00  0.00     0.000 A 
ATOM     22  C   UNL     1     117.958 114.890  82.016  1.00  0.00     0.000 A 
ENDBRANCH  16  17
ENDBRANCH  15  16
ENDBRANCH   7  10
ENDBRANCH   1   7
BRANCH   4  23
ATOM     23  C   UNL     1     106.796 111.972  75.436  1.00  0.00     0.258 C 
ATOM     24  O   UNL     1     105.696 112.522  75.273  1.00  0.00    -0.269 OA
BRANCH  23  25
ATOM     25  N   UNL     1     107.455 111.163  74.473  1.00  0.00    -0.311 N 
ATOM     26  C   UNL     1     106.889 109.866  74.071  1.00  0.00     0.153 C 
BRANCH  25  27
ATOM     27  C   UNL     1     108.698 111.620  73.880  1.00  0.00     0.047 A 
ATOM     28  C   UNL     1     108.696 112.425  72.739  1.00  0.00    -0.024 A 
ATOM     29  C   UNL     1     109.907 111.248  74.467  1.00  0.00     0.026 A 
ATOM     30  C   UNL     1     109.902 112.856  72.187  1.00  0.00    -0.046 A 
ATOM     31  C   UNL     1     111.113 111.680  73.916  1.00  0.00     0.002 A 
ATOM     32  C   UNL     1     111.111 112.483  72.776  1.00  0.00     0.004 A 
ATOM     33  C   UNL     1     107.401 112.826  72.104  1.00  0.00     0.047 C 
ATOM     34  C   UNL     1     109.928 113.717  70.967  1.00  0.00     0.044 C 
ENDBRANCH  25  27
ENDBRANCH  23  25
ENDBRANCH   4  23
TORSDOF 7
ENDMDL
MODEL 13
REMARK VINA RESULT:     -10.4      3.290      8.852
REMARK SMILES Cc1cccc(N(C)C(=O)c2cccc(S(=O)(=O)N3CCN(Cc4ccccc4)CC3)c2)c1C
REMARK SMILES IDX 15 1 32 2 14 3 11 4 13 5 12 6 16 7 17 8 18 9 19 10 20 11
REMARK SMILES IDX 31 12 21 13 30 14 22 15 23 16 24 17 25 18 29 19 26 20 28 21
REMARK SMILES IDX 27 22 9 23 10 24 7 25 8 26 6 27 33 28 5 29 2 30 4 31 3 32
REMARK SMILES IDX 34 33 1 34
REMARK H PARENT
ROOT
ATOM      1  C   UNL     1     110.041 113.247  75.816  1.00  0.00     0.083 A 
ATOM      2  C   UNL     1     110.790 113.716  76.896  1.00  0.00     0.035 A 
ATOM      3  C   UNL     1     109.248 114.128  75.081  1.00  0.00     0.022 A 
ATOM      4  C   UNL     1     110.746 115.067  77.239  1.00  0.00     0.041 A 
ATOM      5  C   UNL     1     109.204 115.479  75.426  1.00  0.00     0.002 A 
ATOM      6  C   UNL     1     109.953 115.949  76.504  1.00  0.00     0.014 A 
ENDROOT
BRANCH   1   7
ATOM      7  S   UNL     1     110.096 111.536  75.382  1.00  0.00     0.243 S 
ATOM      8  O   UNL     1     110.067 111.444  73.939  1.00  0.00    -0.207 OA
ATOM      9  O   UNL     1     111.157 110.916  76.147  1.00  0.00    -0.207 OA
BRANCH   7  10
ATOM     10  N   UNL     1     108.587 111.021  76.006  1.00  0.00    -0.195 NA
ATOM     11  C   UNL     1     107.534 110.743  74.989  1.00  0.00     0.118 C 
ATOM     12  C   UNL     1     108.051 111.829  77.138  1.00  0.00     0.118 C 
ATOM     13  C   UNL     1     106.353 110.039  75.655  1.00  0.00     0.101 C 
ATOM     14  C   UNL     1     106.860 111.104  77.763  1.00  0.00     0.101 C 
ATOM     15  N   UNL     1     105.817 110.847  76.759  1.00  0.00    -0.296 NA
BRANCH  15  16
ATOM     16  C   UNL     1     104.667 110.184  77.372  1.00  0.00     0.120 C 
BRANCH  16  17
ATOM     17  C   UNL     1     103.946 111.088  78.337  1.00  0.00    -0.034 A 
ATOM     18  C   UNL     1     103.501 112.342  77.919  1.00  0.00     0.005 A 
ATOM     19  C   UNL     1     103.726 110.671  79.650  1.00  0.00     0.005 A 
ATOM     20  C   UNL     1     102.834 113.179  78.814  1.00  0.00     0.000 A 
ATOM     21  C   UNL     1     103.060 111.509  80.544  1.00  0.00     0.000 A 
ATOM     22  C   UNL     1     102.614 112.762  80.126  1.00  0.00     0.000 A 
ENDBRANCH  16  17
ENDBRANCH  15  16
ENDBRANCH   7  10
ENDBRANCH   1   7
BRANCH   4  23
ATOM     23  C   UNL     1     111.527 115.557  78.364  1.00  0.00     0.258 C 
ATOM     24  O   UNL     1     112.166 116.602  78.168  1.00  0.00    -0.269 OA
BRANCH  23  25
ATOM     25  N   UNL     1     111.506 114.829  79.584  1.00  0.00    -0.311 N 
ATOM     26  C   UNL     1     110.502 115.129  80.618  1.00  0.00     0.153 C 
BRANCH  25  27
ATOM     27  C   UNL     1     112.484 113.782  79.813  1.00  0.00     0.047 A 
ATOM     28  C   UNL     1     112.083 112.483  80.130  1.00  0.00    -0.024 A 
ATOM     29  C   UNL     1     113.841 114.086  79.709  1.00  0.00     0.026 A 
ATOM     30  C   UNL     1     113.039 111.490  80.342  1.00  0.00    -0.046 A 
ATOM     31  C   UNL     1     114.797 113.093  79.921  1.00  0.00     0.002 A 
ATOM     32  C   UNL     1     114.397 111.796  80.238  1.00  0.00     0.004 A 
ATOM     33  C   UNL     1     110.627 112.152  80.243  1.00  0.00     0.047 C 
ATOM     34  C   UNL     1     112.637 110.093  80.683  1.00  0.00     0.044 C 
ENDBRANCH  25  27
ENDBRANCH  23  25
ENDBRANCH   4  23
TORSDOF 7
ENDMDL
MODEL 14
REMARK VINA RESULT:     -10.3      2.922      8.953
REMARK SMILES Cc1cccc(N(C)C(=O)c2cccc(S(=O)(=O)N3CCN(Cc4ccccc4)CC3)c2)c1C
REMARK SMILES IDX 15 1 32 2 14 3 11 4 13 5 12 6 16 7 17 8 18 9 19 10 20 11
REMARK SMILES IDX 31 12 21 13 30 14 22 15 23 16 24 17 25 18 29 19 26 20 28 21
REMARK SMILES IDX 27 22 9 23 10 24 7 25 8 26 6 27 33 28 5 29 2 30 4 31 3 32
REMARK SMILES IDX 34 33 1 34
REMARK H PARENT
ROOT
ATOM      1  C   UNL     1     110.583 113.647  76.769  1.00  0.00     0.083 A 
ATOM      2  C   UNL     1     111.211 113.144  77.909  1.00  0.00     0.035 A 
ATOM      3  C   UNL     1     110.285 115.007  76.680  1.00  0.00     0.022 A 
ATOM      4  C   UNL     1     111.539 114.001  78.959  1.00  0.00     0.041 A 
ATOM      5  C   UNL     1     110.613 115.863  77.731  1.00  0.00     0.002 A 
ATOM      6  C   UNL     1     111.241 115.361  78.870  1.00  0.00     0.014 A 
ENDROOT
BRANCH   1   7
ATOM      7  S   UNL     1     110.166 112.563  75.440  1.00  0.00     0.243 S 
ATOM      8  O   UNL     1     109.825 113.377  74.294  1.00  0.00    -0.207 OA
ATOM      9  O   UNL     1     111.194 111.548  75.354  1.00  0.00    -0.207 OA
BRANCH   7  10
ATOM     10  N   UNL     1     108.738 111.856  76.068  1.00  0.00    -0.195 NA
ATOM     11  C   UNL     1     107.943 111.049  75.101  1.00  0.00     0.118 C 
ATOM     12  C   UNL     1     107.867 112.768  76.862  1.00  0.00     0.118 C 
ATOM     13  C   UNL     1     106.868 110.265  75.851  1.00  0.00     0.101 C 
ATOM     14  C   UNL     1     106.793 111.951  77.580  1.00  0.00     0.101 C 
ATOM     15  N   UNL     1     106.001 111.169  76.619  1.00  0.00    -0.296 NA
BRANCH  15  16
ATOM     16  C   UNL     1     104.954 110.417  77.308  1.00  0.00     0.120 C 
BRANCH  16  17
ATOM     17  C   UNL     1     104.120 111.301  78.198  1.00  0.00    -0.034 A 
ATOM     18  C   UNL     1     103.943 110.972  79.541  1.00  0.00     0.005 A 
ATOM     19  C   UNL     1     103.525 112.450  77.676  1.00  0.00     0.005 A 
ATOM     20  C   UNL     1     103.170 111.791  80.364  1.00  0.00     0.000 A 
ATOM     21  C   UNL     1     102.752 113.269  78.500  1.00  0.00     0.000 A 
ATOM     22  C   UNL     1     102.575 112.939  79.843  1.00  0.00     0.000 A 
ENDBRANCH  16  17
ENDBRANCH  15  16
ENDBRANCH   7  10
ENDBRANCH   1   7
BRANCH   4  23
ATOM     23  C   UNL     1     112.194 113.477  80.147  1.00  0.00     0.258 C 
ATOM     24  O   UNL     1     111.714 113.833  81.234  1.00  0.00    -0.269 OA
BRANCH  23  25
ATOM     25  N   UNL     1     113.311 112.612  79.992  1.00  0.00    -0.311 N 
ATOM     26  C   UNL     1     113.309 111.272  80.600  1.00  0.00     0.153 C 
BRANCH  25  27
ATOM     27  C   UNL     1     114.462 113.055  79.228  1.00  0.00     0.047 A 
ATOM     28  C   UNL     1     115.215 114.156  79.638  1.00  0.00    -0.024 A 
ATOM     29  C   UNL     1     114.815 112.362  78.070  1.00  0.00     0.026 A 
ATOM     30  C   UNL     1     116.320 114.563  78.891  1.00  0.00    -0.046 A 
ATOM     31  C   UNL     1     115.921 112.768  77.324  1.00  0.00     0.002 A 
ATOM     32  C   UNL     1     116.673 113.869  77.733  1.00  0.00     0.004 A 
ATOM     33  C   UNL     1     114.839 114.904  80.879  1.00  0.00     0.047 C 
ATOM     34  C   UNL     1     117.142 115.738  79.307  1.00  0.00     0.044 C 
ENDBRANCH  25  27
ENDBRANCH  23  25
ENDBRANCH   4  23
TORSDOF 7
ENDMDL
MODEL 15
REMARK VINA RESULT:     -10.3      2.064      3.642
REMARK SMILES Cc1cccc(N(C)C(=O)c2cccc(S(=O)(=O)N3CCN(Cc4ccccc4)CC3)c2)c1C
REMARK SMILES IDX 15 1 32 2 14 3 11 4 13 5 12 6 16 7 17 8 18 9 19 10 20 11
REMARK SMILES IDX 31 12 21 13 30 14 22 15 23 16 24 17 25 18 29 19 26 20 28 21
REMARK SMILES IDX 27 22 9 23 10 24 7 25 8 26 6 27 33 28 5 29 2 30 4 31 3 32
REMARK SMILES IDX 34 33 1 34
REMARK H PARENT
ROOT
ATOM      1  C   UNL     1     111.332 113.372  78.223  1.00  0.00     0.083 A 
ATOM      2  C   UNL     1     110.929 113.285  76.890  1.00  0.00     0.035 A 
ATOM      3  C   UNL     1     111.476 112.212  78.985  1.00  0.00     0.022 A 
ATOM      4  C   UNL     1     110.670 112.039  76.320  1.00  0.00     0.041 A 
ATOM      5  C   UNL     1     111.217 110.966  78.414  1.00  0.00     0.002 A 
ATOM      6  C   UNL     1     110.814 110.879  77.081  1.00  0.00     0.014 A 
ENDROOT
BRANCH   1   7
ATOM      7  S   UNL     1     111.658 114.949  78.945  1.00  0.00     0.243 S 
ATOM      8  O   UNL     1     111.157 115.962  78.042  1.00  0.00    -0.207 OA
ATOM      9  O   UNL     1     111.227 114.903  80.327  1.00  0.00    -0.207 OA
BRANCH   7  10
ATOM     10  N   UNL     1     113.369 114.952  78.897  1.00  0.00    -0.195 NA
ATOM     11  C   UNL     1     114.047 114.568  80.166  1.00  0.00     0.118 C 
ATOM     12  C   UNL     1     113.992 116.164  78.292  1.00  0.00     0.118 C 
ATOM     13  C   UNL     1     115.536 114.347  79.905  1.00  0.00     0.101 C 
ATOM     14  C   UNL     1     115.482 115.913  78.065  1.00  0.00     0.101 C 
ATOM     15  N   UNL     1     116.149 115.550  79.324  1.00  0.00    -0.296 NA
BRANCH  15  16
ATOM     16  C   UNL     1     117.580 115.345  79.107  1.00  0.00     0.120 C 
BRANCH  16  17
ATOM     17  C   UNL     1     118.229 114.636  80.266  1.00  0.00    -0.034 A 
ATOM     18  C   UNL     1     118.208 115.213  81.536  1.00  0.00     0.005 A 
ATOM     19  C   UNL     1     118.850 113.402  80.069  1.00  0.00     0.005 A 
ATOM     20  C   UNL     1     118.810 114.555  82.610  1.00  0.00     0.000 A 
ATOM     21  C   UNL     1     119.451 112.746  81.143  1.00  0.00     0.000 A 
ATOM     22  C   UNL     1     119.431 113.323  82.413  1.00  0.00     0.000 A 
ENDBRANCH  16  17
ENDBRANCH  15  16
ENDBRANCH   7  10
ENDBRANCH   1   7
BRANCH   4  23
ATOM     23  C   UNL     1     110.251 111.948  74.930  1.00  0.00     0.258 C 
ATOM     24  O   UNL     1     111.122 111.595  74.121  1.00  0.00    -0.269 OA
BRANCH  23  25
ATOM     25  N   UNL     1     108.905 112.258  74.597  1.00  0.00    -0.311 N 
ATOM     26  C   UNL     1     108.602 113.291  73.593  1.00  0.00     0.153 C 
BRANCH  25  27
ATOM     27  C   UNL     1     107.821 111.551  75.252  1.00  0.00     0.047 A 
ATOM     28  C   UNL     1     107.115 112.136  76.304  1.00  0.00    -0.024 A 
ATOM     29  C   UNL     1     107.485 110.270  74.815  1.00  0.00     0.026 A 
ATOM     30  C   UNL     1     106.074 111.440  76.918  1.00  0.00    -0.046 A 
ATOM     31  C   UNL     1     106.443 109.574  75.428  1.00  0.00     0.002 A 
ATOM     32  C   UNL     1     105.738 110.158  76.480  1.00  0.00     0.004 A 
ATOM     33  C   UNL     1     107.473 113.511  76.777  1.00  0.00     0.047 C 
ATOM     34  C   UNL     1     105.302 112.043  78.046  1.00  0.00     0.044 C 
ENDBRANCH  25  27
ENDBRANCH  23  25
ENDBRANCH   4  23
TORSDOF 7
ENDMDL
