MODEL 1
REMARK VINA RESULT:      -8.9      0.000      0.000
REMARK SMILES O=C1CCC(=O)c2c1c(O)c(O)c1c2-c2ccc(O)c3c(O)ccc-1c23
REMARK SMILES IDX 1 1 2 2 3 3 4 4 5 5 6 6 7 7 8 8 9 9 11 10 13 11 14 12 15 13
REMARK SMILES IDX 16 14 17 15 18 16 20 17 21 18 23 19 24 20 25 21 26 22 10 23
REMARK SMILES IDX 12 25 19 27 22 29
REMARK H PARENT 10 24 12 26 19 28 22 30
ROOT
ATOM      1  O   UNL     1     102.851  95.963 119.979  1.00  0.00    -0.294 OA
ATOM      2  C   UNL     1     103.846  95.460 119.391  1.00  0.00     0.167 C 
ATOM      3  C   UNL     1     104.760  94.557 120.178  1.00  0.00     0.089 C 
ATOM      4  C   UNL     1     105.385  93.480 119.289  1.00  0.00     0.089 C 
ATOM      5  C   UNL     1     105.989  94.121 118.081  1.00  0.00     0.164 C 
ATOM      6  O   UNL     1     107.214  93.964 117.832  1.00  0.00    -0.294 OA
ATOM      7  C   UNL     1     105.164  95.060 117.293  1.00  0.00     0.041 A 
ATOM      8  C   UNL     1     104.142  95.788 117.961  1.00  0.00     0.075 A 
ATOM      9  C   UNL     1     103.432  96.819 117.273  1.00  0.00     0.169 A 
ATOM     10  C   UNL     1     103.747  97.120 115.922  1.00  0.00     0.166 A 
ATOM     11  C   UNL     1     104.720  96.352 115.284  1.00  0.00     0.037 A 
ATOM     12  C   UNL     1     105.384  95.314 115.929  1.00  0.00     0.006 A 
ATOM     13  C   UNL     1     106.236  94.653 114.916  1.00  0.00    -0.008 A 
ATOM     14  C   UNL     1     106.970  93.462 114.898  1.00  0.00     0.013 A 
ATOM     15  C   UNL     1     107.619  93.089 113.703  1.00  0.00     0.047 A 
ATOM     16  C   UNL     1     107.489  93.869 112.525  1.00  0.00     0.127 A 
ATOM     17  C   UNL     1     106.679  95.029 112.544  1.00  0.00     0.067 A 
ATOM     18  C   UNL     1     106.395  95.852 111.427  1.00  0.00     0.127 A 
ATOM     19  C   UNL     1     105.502  96.947 111.574  1.00  0.00     0.047 A 
ATOM     20  C   UNL     1     104.884  97.220 112.812  1.00  0.00     0.013 A 
ATOM     21  C   UNL     1     105.197  96.401 113.898  1.00  0.00    -0.005 A 
ATOM     22  C   UNL     1     106.081  95.367 113.753  1.00  0.00     0.005 A 
ENDROOT
BRANCH   9  23
ATOM     23  O   UNL     1     102.435  97.522 117.957  1.00  0.00    -0.504 OA
ATOM     24  H   UNL     1     102.127  98.399 117.617  1.00  0.00     0.293 HD
ENDBRANCH   9  23
BRANCH  10  25
ATOM     25  O   UNL     1     103.122  98.143 115.206  1.00  0.00    -0.504 OA
ATOM     26  H   UNL     1     103.210  98.184 114.221  1.00  0.00     0.293 HD
ENDBRANCH  10  25
BRANCH  16  27
ATOM     27  O   UNL     1     108.139  93.473 111.357  1.00  0.00    -0.507 OA
ATOM     28  H   UNL     1     109.121  93.567 111.281  1.00  0.00     0.293 HD
ENDBRANCH  16  27
BRANCH  18  29
ATOM     29  O   UNL     1     106.973  95.590 110.186  1.00  0.00    -0.507 OA
ATOM     30  H   UNL     1     107.073  94.655 109.875  1.00  0.00     0.293 HD
ENDBRANCH  18  29
TORSDOF 4
ENDMDL
MODEL 2
REMARK VINA RESULT:      -8.7      1.072      3.681
REMARK SMILES O=C1CCC(=O)c2c1c(O)c(O)c1c2-c2ccc(O)c3c(O)ccc-1c23
REMARK SMILES IDX 1 1 2 2 3 3 4 4 5 5 6 6 7 7 8 8 9 9 11 10 13 11 14 12 15 13
REMARK SMILES IDX 16 14 17 15 18 16 20 17 21 18 23 19 24 20 25 21 26 22 10 23
REMARK SMILES IDX 12 25 19 27 22 29
REMARK H PARENT 10 24 12 26 19 28 22 30
ROOT
ATOM      1  O   UNL     1     103.854  97.252 120.128  1.00  0.00    -0.294 OA
ATOM      2  C   UNL     1     103.615  97.313 118.892  1.00  0.00     0.167 C 
ATOM      3  C   UNL     1     102.477  98.184 118.427  1.00  0.00     0.089 C 
ATOM      4  C   UNL     1     102.749  98.766 117.038  1.00  0.00     0.089 C 
ATOM      5  C   UNL     1     103.147  97.667 116.106  1.00  0.00     0.164 C 
ATOM      6  O   UNL     1     102.482  97.460 115.057  1.00  0.00    -0.294 OA
ATOM      7  C   UNL     1     104.222  96.743 116.524  1.00  0.00     0.041 A 
ATOM      8  C   UNL     1     104.408  96.504 117.913  1.00  0.00     0.075 A 
ATOM      9  C   UNL     1     105.324  95.500 118.350  1.00  0.00     0.169 A 
ATOM     10  C   UNL     1     106.050  94.736 117.398  1.00  0.00     0.166 A 
ATOM     11  C   UNL     1     105.878  95.031 116.046  1.00  0.00     0.037 A 
ATOM     12  C   UNL     1     105.025  96.041 115.611  1.00  0.00     0.006 A 
ATOM     13  C   UNL     1     105.200  96.149 114.146  1.00  0.00    -0.008 A 
ATOM     14  C   UNL     1     104.781  97.080 113.189  1.00  0.00     0.013 A 
ATOM     15  C   UNL     1     105.207  96.912 111.855  1.00  0.00     0.047 A 
ATOM     16  C   UNL     1     106.087  95.859 111.495  1.00  0.00     0.127 A 
ATOM     17  C   UNL     1     106.559  94.974 112.492  1.00  0.00     0.067 A 
ATOM     18  C   UNL     1     107.500  93.934 112.291  1.00  0.00     0.127 A 
ATOM     19  C   UNL     1     107.943  93.167 113.401  1.00  0.00     0.047 A 
ATOM     20  C   UNL     1     107.471  93.434 114.704  1.00  0.00     0.013 A 
ATOM     21  C   UNL     1     106.532  94.454 114.868  1.00  0.00    -0.005 A 
ATOM     22  C   UNL     1     106.090  95.167 113.787  1.00  0.00     0.005 A 
ENDROOT
BRANCH   9  23
ATOM     23  O   UNL     1     105.483  95.284 119.723  1.00  0.00    -0.504 OA
ATOM     24  H   UNL     1     104.692  95.097 120.289  1.00  0.00     0.293 HD
ENDBRANCH   9  23
BRANCH  10  25
ATOM     25  O   UNL     1     106.927  93.711 117.756  1.00  0.00    -0.504 OA
ATOM     26  H   UNL     1     107.011  93.440 118.705  1.00  0.00     0.293 HD
ENDBRANCH  10  25
BRANCH  16  27
ATOM     27  O   UNL     1     106.495  95.720 110.169  1.00  0.00    -0.507 OA
ATOM     28  H   UNL     1     105.921  96.060 109.436  1.00  0.00     0.293 HD
ENDBRANCH  16  27
BRANCH  18  29
ATOM     29  O   UNL     1     108.001  93.666 111.019  1.00  0.00    -0.507 OA
ATOM     30  H   UNL     1     108.530  92.844 110.859  1.00  0.00     0.293 HD
ENDBRANCH  18  29
TORSDOF 4
ENDMDL
MODEL 3
REMARK VINA RESULT:      -8.0      1.343      6.105
REMARK SMILES O=C1CCC(=O)c2c1c(O)c(O)c1c2-c2ccc(O)c3c(O)ccc-1c23
REMARK SMILES IDX 1 1 2 2 3 3 4 4 5 5 6 6 7 7 8 8 9 9 11 10 13 11 14 12 15 13
REMARK SMILES IDX 16 14 17 15 18 16 20 17 21 18 23 19 24 20 25 21 26 22 10 23
REMARK SMILES IDX 12 25 19 27 22 29
REMARK H PARENT 10 24 12 26 19 28 22 30
ROOT
ATOM      1  O   UNL     1     106.793  95.618 110.236  1.00  0.00    -0.294 OA
ATOM      2  C   UNL     1     106.800  94.947 111.303  1.00  0.00     0.167 C 
ATOM      3  C   UNL     1     107.572  93.653 111.327  1.00  0.00     0.089 C 
ATOM      4  C   UNL     1     108.133  93.361 112.720  1.00  0.00     0.089 C 
ATOM      5  C   UNL     1     107.040  93.483 113.733  1.00  0.00     0.164 C 
ATOM      6  O   UNL     1     106.755  92.504 114.472  1.00  0.00    -0.294 OA
ATOM      7  C   UNL     1     106.210  94.706 113.730  1.00  0.00     0.041 A 
ATOM      8  C   UNL     1     106.025  95.397 112.502  1.00  0.00     0.075 A 
ATOM      9  C   UNL     1     105.104  96.485 112.424  1.00  0.00     0.169 A 
ATOM     10  C   UNL     1     104.370  96.878 113.574  1.00  0.00     0.166 A 
ATOM     11  C   UNL     1     104.613  96.210 114.773  1.00  0.00     0.037 A 
ATOM     12  C   UNL     1     105.543  95.180 114.871  1.00  0.00     0.006 A 
ATOM     13  C   UNL     1     105.623  94.808 116.301  1.00  0.00    -0.008 A 
ATOM     14  C   UNL     1     106.493  94.001 117.043  1.00  0.00     0.013 A 
ATOM     15  C   UNL     1     106.318  93.932 118.441  1.00  0.00     0.047 A 
ATOM     16  C   UNL     1     105.324  94.703 119.094  1.00  0.00     0.127 A 
ATOM     17  C   UNL     1     104.505  95.571 118.334  1.00  0.00     0.067 A 
ATOM     18  C   UNL     1     103.532  96.455 118.860  1.00  0.00     0.127 A 
ATOM     19  C   UNL     1     102.832  97.327 117.985  1.00  0.00     0.047 A 
ATOM     20  C   UNL     1     103.100  97.335 116.600  1.00  0.00     0.013 A 
ATOM     21  C   UNL     1     104.052  96.440 116.108  1.00  0.00    -0.005 A 
ATOM     22  C   UNL     1     104.700  95.584 116.957  1.00  0.00     0.005 A 
ENDROOT
BRANCH   9  23
ATOM     23  O   UNL     1     104.939  97.143 111.201  1.00  0.00    -0.504 OA
ATOM     24  H   UNL     1     105.604  97.816 110.908  1.00  0.00     0.293 HD
ENDBRANCH   9  23
BRANCH  10  25
ATOM     25  O   UNL     1     103.422  97.904 113.556  1.00  0.00    -0.504 OA
ATOM     26  H   UNL     1     102.457  97.686 113.505  1.00  0.00     0.293 HD
ENDBRANCH  10  25
BRANCH  16  27
ATOM     27  O   UNL     1     105.178  94.617 120.478  1.00  0.00    -0.507 OA
ATOM     28  H   UNL     1     105.801  94.058 121.007  1.00  0.00     0.293 HD
ENDBRANCH  16  27
BRANCH  18  29
ATOM     29  O   UNL     1     103.265  96.485 120.228  1.00  0.00    -0.507 OA
ATOM     30  H   UNL     1     103.840  97.019 120.832  1.00  0.00     0.293 HD
ENDBRANCH  18  29
TORSDOF 4
ENDMDL
MODEL 4
REMARK VINA RESULT:      -8.0     12.305     14.629
REMARK SMILES O=C1CCC(=O)c2c1c(O)c(O)c1c2-c2ccc(O)c3c(O)ccc-1c23
REMARK SMILES IDX 1 1 2 2 3 3 4 4 5 5 6 6 7 7 8 8 9 9 11 10 13 11 14 12 15 13
REMARK SMILES IDX 16 14 17 15 18 16 20 17 21 18 23 19 24 20 25 21 26 22 10 23
REMARK SMILES IDX 12 25 19 27 22 29
REMARK H PARENT 10 24 12 26 19 28 22 30
ROOT
ATOM      1  O   UNL     1     119.582 100.985 120.516  1.00  0.00    -0.294 OA
ATOM      2  C   UNL     1     119.110 100.405 121.530  1.00  0.00     0.167 C 
ATOM      3  C   UNL     1     119.233 101.090 122.866  1.00  0.00     0.089 C 
ATOM      4  C   UNL     1     118.059 100.744 123.784  1.00  0.00     0.089 C 
ATOM      5  C   UNL     1     117.883  99.260 123.829  1.00  0.00     0.164 C 
ATOM      6  O   UNL     1     117.940  98.653 124.931  1.00  0.00    -0.294 OA
ATOM      7  C   UNL     1     117.808  98.519 122.553  1.00  0.00     0.041 A 
ATOM      8  C   UNL     1     118.484  99.050 121.420  1.00  0.00     0.075 A 
ATOM      9  C   UNL     1     118.571  98.288 120.216  1.00  0.00     0.169 A 
ATOM     10  C   UNL     1     117.983  96.997 120.148  1.00  0.00     0.166 A 
ATOM     11  C   UNL     1     117.285  96.530 121.261  1.00  0.00     0.037 A 
ATOM     12  C   UNL     1     117.154  97.284 122.422  1.00  0.00     0.006 A 
ATOM     13  C   UNL     1     116.253  96.532 123.323  1.00  0.00    -0.008 A 
ATOM     14  C   UNL     1     115.598  96.846 124.519  1.00  0.00     0.013 A 
ATOM     15  C   UNL     1     114.727  95.890 125.081  1.00  0.00     0.047 A 
ATOM     16  C   UNL     1     114.471  94.659 124.426  1.00  0.00     0.127 A 
ATOM     17  C   UNL     1     115.084  94.392 123.180  1.00  0.00     0.067 A 
ATOM     18  C   UNL     1     114.857  93.245 122.379  1.00  0.00     0.127 A 
ATOM     19  C   UNL     1     115.486  93.143 121.110  1.00  0.00     0.047 A 
ATOM     20  C   UNL     1     116.323  94.171 120.628  1.00  0.00     0.013 A 
ATOM     21  C   UNL     1     116.541  95.280 121.447  1.00  0.00    -0.005 A 
ATOM     22  C   UNL     1     115.953  95.356 122.680  1.00  0.00     0.005 A 
ENDROOT
BRANCH   9  23
ATOM     23  O   UNL     1     119.246  98.833 119.120  1.00  0.00    -0.504 OA
ATOM     24  H   UNL     1     119.815  98.255 118.552  1.00  0.00     0.293 HD
ENDBRANCH   9  23
BRANCH  10  25
ATOM     25  O   UNL     1     118.068  96.182 119.017  1.00  0.00    -0.504 OA
ATOM     26  H   UNL     1     118.408  95.255 119.099  1.00  0.00     0.293 HD
ENDBRANCH  10  25
BRANCH  16  27
ATOM     27  O   UNL     1     113.601  93.734 125.004  1.00  0.00    -0.507 OA
ATOM     28  H   UNL     1     113.471  92.847 124.583  1.00  0.00     0.293 HD
ENDBRANCH  16  27
BRANCH  18  29
ATOM     29  O   UNL     1     114.015  92.226 122.821  1.00  0.00    -0.507 OA
ATOM     30  H   UNL     1     113.529  91.667 122.163  1.00  0.00     0.293 HD
ENDBRANCH  18  29
TORSDOF 4
ENDMDL
MODEL 5
REMARK VINA RESULT:      -7.6      1.638      2.348
REMARK SMILES O=C1CCC(=O)c2c1c(O)c(O)c1c2-c2ccc(O)c3c(O)ccc-1c23
REMARK SMILES IDX 1 1 2 2 3 3 4 4 5 5 6 6 7 7 8 8 9 9 11 10 13 11 14 12 15 13
REMARK SMILES IDX 16 14 17 15 18 16 20 17 21 18 23 19 24 20 25 21 26 22 10 23
REMARK SMILES IDX 12 25 19 27 22 29
REMARK H PARENT 10 24 12 26 19 28 22 30
ROOT
ATOM      1  O   UNL     1     100.725  97.838 117.425  1.00  0.00    -0.294 OA
ATOM      2  C   UNL     1     101.894  97.374 117.512  1.00  0.00     0.167 C 
ATOM      3  C   UNL     1     102.517  97.264 118.880  1.00  0.00     0.089 C 
ATOM      4  C   UNL     1     103.485  96.082 118.960  1.00  0.00     0.089 C 
ATOM      5  C   UNL     1     104.443  96.144 117.813  1.00  0.00     0.164 C 
ATOM      6  O   UNL     1     105.682  96.196 118.031  1.00  0.00    -0.294 OA
ATOM      7  C   UNL     1     103.899  96.305 116.449  1.00  0.00     0.041 A 
ATOM      8  C   UNL     1     102.663  96.988 116.288  1.00  0.00     0.075 A 
ATOM      9  C   UNL     1     102.185  97.305 114.981  1.00  0.00     0.169 A 
ATOM     10  C   UNL     1     102.946  96.941 113.838  1.00  0.00     0.166 A 
ATOM     11  C   UNL     1     104.129  96.229 114.032  1.00  0.00     0.037 A 
ATOM     12  C   UNL     1     104.579  95.873 115.299  1.00  0.00     0.006 A 
ATOM     13  C   UNL     1     105.777  95.026 115.106  1.00  0.00    -0.008 A 
ATOM     14  C   UNL     1     106.540  94.223 115.960  1.00  0.00     0.013 A 
ATOM     15  C   UNL     1     107.597  93.469 115.409  1.00  0.00     0.047 A 
ATOM     16  C   UNL     1     107.851  93.475 114.014  1.00  0.00     0.127 A 
ATOM     17  C   UNL     1     107.019  94.235 113.158  1.00  0.00     0.067 A 
ATOM     18  C   UNL     1     107.105  94.269 111.745  1.00  0.00     0.127 A 
ATOM     19  C   UNL     1     106.154  95.019 111.004  1.00  0.00     0.047 A 
ATOM     20  C   UNL     1     105.117  95.721 111.654  1.00  0.00     0.013 A 
ATOM     21  C   UNL     1     105.068  95.681 113.048  1.00  0.00    -0.005 A 
ATOM     22  C   UNL     1     106.007  94.980 113.753  1.00  0.00     0.005 A 
ENDROOT
BRANCH   9  23
ATOM     23  O   UNL     1     100.968  97.982 114.853  1.00  0.00    -0.504 OA
ATOM     24  H   UNL     1     100.771  98.494 114.029  1.00  0.00     0.293 HD
ENDBRANCH   9  23
BRANCH  10  25
ATOM     25  O   UNL     1     102.558  97.260 112.535  1.00  0.00    -0.504 OA
ATOM     26  H   UNL     1     102.449  98.207 112.268  1.00  0.00     0.293 HD
ENDBRANCH  10  25
BRANCH  16  27
ATOM     27  O   UNL     1     108.901  92.717 113.497  1.00  0.00    -0.507 OA
ATOM     28  H   UNL     1     109.247  92.906 112.589  1.00  0.00     0.293 HD
ENDBRANCH  16  27
BRANCH  18  29
ATOM     29  O   UNL     1     108.105  93.565 111.076  1.00  0.00    -0.507 OA
ATOM     30  H   UNL     1     109.057  93.790 111.233  1.00  0.00     0.293 HD
ENDBRANCH  18  29
TORSDOF 4
ENDMDL
MODEL 6
REMARK VINA RESULT:      -7.2     12.419     14.805
REMARK SMILES O=C1CCC(=O)c2c1c(O)c(O)c1c2-c2ccc(O)c3c(O)ccc-1c23
REMARK SMILES IDX 1 1 2 2 3 3 4 4 5 5 6 6 7 7 8 8 9 9 11 10 13 11 14 12 15 13
REMARK SMILES IDX 16 14 17 15 18 16 20 17 21 18 23 19 24 20 25 21 26 22 10 23
REMARK SMILES IDX 12 25 19 27 22 29
REMARK H PARENT 10 24 12 26 19 28 22 30
ROOT
ATOM      1  O   UNL     1     121.102  99.809 120.245  1.00  0.00    -0.294 OA
ATOM      2  C   UNL     1     120.320  98.850 120.008  1.00  0.00     0.167 C 
ATOM      3  C   UNL     1     120.501  98.081 118.725  1.00  0.00     0.089 C 
ATOM      4  C   UNL     1     120.095  96.615 118.888  1.00  0.00     0.089 C 
ATOM      5  C   UNL     1     118.733  96.542 119.502  1.00  0.00     0.164 C 
ATOM      6  O   UNL     1     117.803  95.945 118.898  1.00  0.00    -0.294 OA
ATOM      7  C   UNL     1     118.472  97.315 120.733  1.00  0.00     0.041 A 
ATOM      8  C   UNL     1     119.209  98.510 120.952  1.00  0.00     0.075 A 
ATOM      9  C   UNL     1     118.875  99.367 122.044  1.00  0.00     0.169 A 
ATOM     10  C   UNL     1     117.804  99.028 122.912  1.00  0.00     0.166 A 
ATOM     11  C   UNL     1     117.135  97.824 122.697  1.00  0.00     0.037 A 
ATOM     12  C   UNL     1     117.484  96.958 121.665  1.00  0.00     0.006 A 
ATOM     13  C   UNL     1     116.656  95.742 121.827  1.00  0.00    -0.008 A 
ATOM     14  C   UNL     1     116.680  94.472 121.241  1.00  0.00     0.013 A 
ATOM     15  C   UNL     1     115.766  93.501 121.702  1.00  0.00     0.047 A 
ATOM     16  C   UNL     1     114.881  93.780 122.773  1.00  0.00     0.127 A 
ATOM     17  C   UNL     1     114.925  95.046 123.403  1.00  0.00     0.067 A 
ATOM     18  C   UNL     1     114.160  95.433 124.531  1.00  0.00     0.127 A 
ATOM     19  C   UNL     1     114.362  96.715 125.107  1.00  0.00     0.047 A 
ATOM     20  C   UNL     1     115.322  97.605 124.582  1.00  0.00     0.013 A 
ATOM     21  C   UNL     1     116.049  97.202 123.460  1.00  0.00    -0.005 A 
ATOM     22  C   UNL     1     115.826  95.977 122.895  1.00  0.00     0.005 A 
ENDROOT
BRANCH   9  23
ATOM     23  O   UNL     1     119.614 100.539 122.232  1.00  0.00    -0.504 OA
ATOM     24  H   UNL     1     119.251 101.408 121.924  1.00  0.00     0.293 HD
ENDBRANCH   9  23
BRANCH  10  25
ATOM     25  O   UNL     1     117.397  99.843 123.971  1.00  0.00    -0.504 OA
ATOM     26  H   UNL     1     116.471 100.193 123.999  1.00  0.00     0.293 HD
ENDBRANCH  10  25
BRANCH  16  27
ATOM     27  O   UNL     1     113.991  92.799 123.211  1.00  0.00    -0.507 OA
ATOM     28  H   UNL     1     113.016  92.928 123.096  1.00  0.00     0.293 HD
ENDBRANCH  16  27
BRANCH  18  29
ATOM     29  O   UNL     1     113.222  94.563 125.084  1.00  0.00    -0.507 OA
ATOM     30  H   UNL     1     112.519  94.165 124.512  1.00  0.00     0.293 HD
ENDBRANCH  18  29
TORSDOF 4
ENDMDL
MODEL 7
REMARK VINA RESULT:      -7.2      2.439      3.894
REMARK SMILES O=C1CCC(=O)c2c1c(O)c(O)c1c2-c2ccc(O)c3c(O)ccc-1c23
REMARK SMILES IDX 1 1 2 2 3 3 4 4 5 5 6 6 7 7 8 8 9 9 11 10 13 11 14 12 15 13
REMARK SMILES IDX 16 14 17 15 18 16 20 17 21 18 23 19 24 20 25 21 26 22 10 23
REMARK SMILES IDX 12 25 19 27 22 29
REMARK H PARENT 10 24 12 26 19 28 22 30
ROOT
ATOM      1  O   UNL     1     103.799  96.040 120.991  1.00  0.00    -0.294 OA
ATOM      2  C   UNL     1     104.165  96.233 119.801  1.00  0.00     0.167 C 
ATOM      3  C   UNL     1     104.613  97.617 119.407  1.00  0.00     0.089 C 
ATOM      4  C   UNL     1     105.679  97.571 118.311  1.00  0.00     0.089 C 
ATOM      5  C   UNL     1     105.206  96.699 117.193  1.00  0.00     0.164 C 
ATOM      6  O   UNL     1     105.112  97.166 116.027  1.00  0.00    -0.294 OA
ATOM      7  C   UNL     1     104.704  95.347 117.516  1.00  0.00     0.041 A 
ATOM      8  C   UNL     1     104.113  95.131 118.791  1.00  0.00     0.075 A 
ATOM      9  C   UNL     1     103.473  93.888 119.081  1.00  0.00     0.169 A 
ATOM     10  C   UNL     1     103.424  92.866 118.096  1.00  0.00     0.166 A 
ATOM     11  C   UNL     1     104.056  93.095 116.875  1.00  0.00     0.037 A 
ATOM     12  C   UNL     1     104.724  94.284 116.599  1.00  0.00     0.006 A 
ATOM     13  C   UNL     1     105.373  94.116 115.280  1.00  0.00    -0.008 A 
ATOM     14  C   UNL     1     106.319  94.859 114.566  1.00  0.00     0.013 A 
ATOM     15  C   UNL     1     106.787  94.350 113.337  1.00  0.00     0.047 A 
ATOM     16  C   UNL     1     106.356  93.088 112.855  1.00  0.00     0.127 A 
ATOM     17  C   UNL     1     105.455  92.318 113.629  1.00  0.00     0.067 A 
ATOM     18  C   UNL     1     105.006  91.012 113.312  1.00  0.00     0.127 A 
ATOM     19  C   UNL     1     104.158  90.324 114.221  1.00  0.00     0.047 A 
ATOM     20  C   UNL     1     103.767  90.916 115.440  1.00  0.00     0.013 A 
ATOM     21  C   UNL     1     104.213  92.210 115.717  1.00  0.00    -0.005 A 
ATOM     22  C   UNL     1     105.005  92.875 114.821  1.00  0.00     0.005 A 
ENDROOT
BRANCH   9  23
ATOM     23  O   UNL     1     102.897  93.705 120.342  1.00  0.00    -0.504 OA
ATOM     24  H   UNL     1     103.462  93.438 121.110  1.00  0.00     0.293 HD
ENDBRANCH   9  23
BRANCH  10  25
ATOM     25  O   UNL     1     102.776  91.646 118.299  1.00  0.00    -0.504 OA
ATOM     26  H   UNL     1     102.253  91.234 117.566  1.00  0.00     0.293 HD
ENDBRANCH  10  25
BRANCH  16  27
ATOM     27  O   UNL     1     106.838  92.608 111.638  1.00  0.00    -0.507 OA
ATOM     28  H   UNL     1     107.812  92.611 111.456  1.00  0.00     0.293 HD
ENDBRANCH  16  27
BRANCH  18  29
ATOM     29  O   UNL     1     105.397  90.395 112.125  1.00  0.00    -0.507 OA
ATOM     30  H   UNL     1     105.954  90.888 111.472  1.00  0.00     0.293 HD
ENDBRANCH  18  29
TORSDOF 4
ENDMDL
MODEL 8
REMARK VINA RESULT:      -7.2     12.115     14.258
REMARK SMILES O=C1CCC(=O)c2c1c(O)c(O)c1c2-c2ccc(O)c3c(O)ccc-1c23
REMARK SMILES IDX 1 1 2 2 3 3 4 4 5 5 6 6 7 7 8 8 9 9 11 10 13 11 14 12 15 13
REMARK SMILES IDX 16 14 17 15 18 16 20 17 21 18 23 19 24 20 25 21 26 22 10 23
REMARK SMILES IDX 12 25 19 27 22 29
REMARK H PARENT 10 24 12 26 19 28 22 30
ROOT
ATOM      1  O   UNL     1     111.940  94.318 121.799  1.00  0.00    -0.294 OA
ATOM      2  C   UNL     1     112.606  95.312 122.194  1.00  0.00     0.167 C 
ATOM      3  C   UNL     1     111.864  96.467 122.816  1.00  0.00     0.089 C 
ATOM      4  C   UNL     1     112.713  97.173 123.874  1.00  0.00     0.089 C 
ATOM      5  C   UNL     1     114.055  97.498 123.301  1.00  0.00     0.164 C 
ATOM      6  O   UNL     1     114.456  98.691 123.275  1.00  0.00    -0.294 OA
ATOM      7  C   UNL     1     114.814  96.422 122.630  1.00  0.00     0.041 A 
ATOM      8  C   UNL     1     114.090  95.368 122.009  1.00  0.00     0.075 A 
ATOM      9  C   UNL     1     114.776  94.399 121.215  1.00  0.00     0.169 A 
ATOM     10  C   UNL     1     116.183  94.489 121.042  1.00  0.00     0.166 A 
ATOM     11  C   UNL     1     116.866  95.507 121.706  1.00  0.00     0.037 A 
ATOM     12  C   UNL     1     116.214  96.427 122.521  1.00  0.00     0.006 A 
ATOM     13  C   UNL     1     117.261  97.260 123.151  1.00  0.00    -0.008 A 
ATOM     14  C   UNL     1     117.256  98.199 124.189  1.00  0.00     0.013 A 
ATOM     15  C   UNL     1     118.484  98.759 124.596  1.00  0.00     0.047 A 
ATOM     16  C   UNL     1     119.708  98.345 124.011  1.00  0.00     0.127 A 
ATOM     17  C   UNL     1     119.699  97.340 123.016  1.00  0.00     0.067 A 
ATOM     18  C   UNL     1     120.845  96.774 122.406  1.00  0.00     0.127 A 
ATOM     19  C   UNL     1     120.691  95.715 121.473  1.00  0.00     0.047 A 
ATOM     20  C   UNL     1     119.414  95.209 121.153  1.00  0.00     0.013 A 
ATOM     21  C   UNL     1     118.302  95.797 121.756  1.00  0.00    -0.005 A 
ATOM     22  C   UNL     1     118.460  96.837 122.632  1.00  0.00     0.005 A 
ENDROOT
BRANCH   9  23
ATOM     23  O   UNL     1     114.037  93.377 120.612  1.00  0.00    -0.504 OA
ATOM     24  H   UNL     1     113.983  92.486 121.041  1.00  0.00     0.293 HD
ENDBRANCH   9  23
BRANCH  10  25
ATOM     25  O   UNL     1     116.908  93.602 120.244  1.00  0.00    -0.504 OA
ATOM     26  H   UNL     1     116.737  93.560 119.269  1.00  0.00     0.293 HD
ENDBRANCH  10  25
BRANCH  16  27
ATOM     27  O   UNL     1     120.907  98.914 124.436  1.00  0.00    -0.507 OA
ATOM     28  H   UNL     1     121.736  98.769 123.914  1.00  0.00     0.293 HD
ENDBRANCH  16  27
BRANCH  18  29
ATOM     29  O   UNL     1     122.120  97.239 122.724  1.00  0.00    -0.507 OA
ATOM     30  H   UNL     1     122.578  96.910 123.538  1.00  0.00     0.293 HD
ENDBRANCH  18  29
TORSDOF 4
ENDMDL
MODEL 9
REMARK VINA RESULT:      -7.1     18.064     21.851
REMARK SMILES O=C1CCC(=O)c2c1c(O)c(O)c1c2-c2ccc(O)c3c(O)ccc-1c23
REMARK SMILES IDX 1 1 2 2 3 3 4 4 5 5 6 6 7 7 8 8 9 9 11 10 13 11 14 12 15 13
REMARK SMILES IDX 16 14 17 15 18 16 20 17 21 18 23 19 24 20 25 21 26 22 10 23
REMARK SMILES IDX 12 25 19 27 22 29
REMARK H PARENT 10 24 12 26 19 28 22 30
ROOT
ATOM      1  O   UNL     1     121.285  80.076 104.598  1.00  0.00    -0.294 OA
ATOM      2  C   UNL     1     121.822  81.185 104.862  1.00  0.00     0.167 C 
ATOM      3  C   UNL     1     122.870  81.714 103.916  1.00  0.00     0.089 C 
ATOM      4  C   UNL     1     122.870  83.243 103.878  1.00  0.00     0.089 C 
ATOM      5  C   UNL     1     122.927  83.776 105.274  1.00  0.00     0.164 C 
ATOM      6  O   UNL     1     123.867  84.540 105.617  1.00  0.00    -0.294 OA
ATOM      7  C   UNL     1     121.961  83.260 106.265  1.00  0.00     0.041 A 
ATOM      8  C   UNL     1     121.465  81.938 106.105  1.00  0.00     0.075 A 
ATOM      9  C   UNL     1     120.659  81.347 107.124  1.00  0.00     0.169 A 
ATOM     10  C   UNL     1     120.352  82.079 108.302  1.00  0.00     0.166 A 
ATOM     11  C   UNL     1     120.813  83.391 108.403  1.00  0.00     0.037 A 
ATOM     12  C   UNL     1     121.559  83.993 107.394  1.00  0.00     0.006 A 
ATOM     13  C   UNL     1     121.754  85.405 107.789  1.00  0.00    -0.008 A 
ATOM     14  C   UNL     1     122.237  86.537 107.124  1.00  0.00     0.013 A 
ATOM     15  C   UNL     1     122.208  87.777 107.796  1.00  0.00     0.047 A 
ATOM     16  C   UNL     1     121.652  87.892 109.095  1.00  0.00     0.127 A 
ATOM     17  C   UNL     1     121.100  86.749 109.721  1.00  0.00     0.067 A 
ATOM     18  C   UNL     1     120.442  86.734 110.975  1.00  0.00     0.127 A 
ATOM     19  C   UNL     1     119.867  85.525 111.450  1.00  0.00     0.047 A 
ATOM     20  C   UNL     1     119.931  84.341 110.685  1.00  0.00     0.013 A 
ATOM     21  C   UNL     1     120.600  84.383 109.460  1.00  0.00    -0.005 A 
ATOM     22  C   UNL     1     121.175  85.546 109.026  1.00  0.00     0.005 A 
ENDROOT
BRANCH   9  23
ATOM     23  O   UNL     1     120.189  80.043 106.941  1.00  0.00    -0.504 OA
ATOM     24  H   UNL     1     119.918  79.500 107.724  1.00  0.00     0.293 HD
ENDBRANCH   9  23
BRANCH  10  25
ATOM     25  O   UNL     1     119.606  81.546 109.355  1.00  0.00    -0.504 OA
ATOM     26  H   UNL     1     119.949  80.766 109.860  1.00  0.00     0.293 HD
ENDBRANCH  10  25
BRANCH  16  27
ATOM     27  O   UNL     1     121.633  89.131 109.734  1.00  0.00    -0.507 OA
ATOM     28  H   UNL     1     121.054  89.272 110.525  1.00  0.00     0.293 HD
ENDBRANCH  16  27
BRANCH  18  29
ATOM     29  O   UNL     1     120.344  87.896 111.739  1.00  0.00    -0.507 OA
ATOM     30  H   UNL     1     120.036  88.738 111.321  1.00  0.00     0.293 HD
ENDBRANCH  18  29
TORSDOF 4
ENDMDL
MODEL 10
REMARK VINA RESULT:      -7.1      2.130      2.588
REMARK SMILES O=C1CCC(=O)c2c1c(O)c(O)c1c2-c2ccc(O)c3c(O)ccc-1c23
REMARK SMILES IDX 1 1 2 2 3 3 4 4 5 5 6 6 7 7 8 8 9 9 11 10 13 11 14 12 15 13
REMARK SMILES IDX 16 14 17 15 18 16 20 17 21 18 23 19 24 20 25 21 26 22 10 23
REMARK SMILES IDX 12 25 19 27 22 29
REMARK H PARENT 10 24 12 26 19 28 22 30
ROOT
ATOM      1  O   UNL     1     102.685  97.201 119.961  1.00  0.00    -0.294 OA
ATOM      2  C   UNL     1     102.929  96.038 119.542  1.00  0.00     0.167 C 
ATOM      3  C   UNL     1     102.481  94.869 120.380  1.00  0.00     0.089 C 
ATOM      4  C   UNL     1     102.132  93.659 119.513  1.00  0.00     0.089 C 
ATOM      5  C   UNL     1     103.255  93.385 118.565  1.00  0.00     0.164 C 
ATOM      6  O   UNL     1     103.823  92.261 118.571  1.00  0.00    -0.294 OA
ATOM      7  C   UNL     1     103.778  94.501 117.750  1.00  0.00     0.041 A 
ATOM      8  C   UNL     1     103.686  95.821 118.270  1.00  0.00     0.075 A 
ATOM      9  C   UNL     1     104.322  96.903 117.590  1.00  0.00     0.169 A 
ATOM     10  C   UNL     1     105.049  96.663 116.394  1.00  0.00     0.166 A 
ATOM     11  C   UNL     1     105.076  95.365 115.887  1.00  0.00     0.037 A 
ATOM     12  C   UNL     1     104.420  94.311 116.515  1.00  0.00     0.006 A 
ATOM     13  C   UNL     1     104.559  93.132 115.633  1.00  0.00    -0.008 A 
ATOM     14  C   UNL     1     103.969  91.863 115.615  1.00  0.00     0.013 A 
ATOM     15  C   UNL     1     104.281  90.991 114.552  1.00  0.00     0.047 A 
ATOM     16  C   UNL     1     105.128  91.402 113.491  1.00  0.00     0.127 A 
ATOM     17  C   UNL     1     105.653  92.716 113.489  1.00  0.00     0.067 A 
ATOM     18  C   UNL     1     106.441  93.286 112.459  1.00  0.00     0.127 A 
ATOM     19  C   UNL     1     106.839  94.646 112.554  1.00  0.00     0.047 A 
ATOM     20  C   UNL     1     106.451  95.442 113.652  1.00  0.00     0.013 A 
ATOM     21  C   UNL     1     105.688  94.848 114.659  1.00  0.00    -0.005 A 
ATOM     22  C   UNL     1     105.335  93.529 114.572  1.00  0.00     0.005 A 
ENDROOT
BRANCH   9  23
ATOM     23  O   UNL     1     104.219  98.190 118.127  1.00  0.00    -0.504 OA
ATOM     24  H   UNL     1     105.010  98.787 118.137  1.00  0.00     0.293 HD
ENDBRANCH   9  23
BRANCH  10  25
ATOM     25  O   UNL     1     105.730  97.669 115.704  1.00  0.00    -0.504 OA
ATOM     26  H   UNL     1     105.767  98.586 116.076  1.00  0.00     0.293 HD
ENDBRANCH  10  25
BRANCH  16  27
ATOM     27  O   UNL     1     105.415  90.520 112.451  1.00  0.00    -0.507 OA
ATOM     28  H   UNL     1     105.292  90.805 111.511  1.00  0.00     0.293 HD
ENDBRANCH  16  27
BRANCH  18  29
ATOM     29  O   UNL     1     106.817  92.529 111.351  1.00  0.00    -0.507 OA
ATOM     30  H   UNL     1     106.781  91.540 111.393  1.00  0.00     0.293 HD
ENDBRANCH  18  29
TORSDOF 4
ENDMDL
MODEL 11
REMARK VINA RESULT:      -7.0      3.608      7.938
REMARK SMILES O=C1CCC(=O)c2c1c(O)c(O)c1c2-c2ccc(O)c3c(O)ccc-1c23
REMARK SMILES IDX 1 1 2 2 3 3 4 4 5 5 6 6 7 7 8 8 9 9 11 10 13 11 14 12 15 13
REMARK SMILES IDX 16 14 17 15 18 16 20 17 21 18 23 19 24 20 25 21 26 22 10 23
REMARK SMILES IDX 12 25 19 27 22 29
REMARK H PARENT 10 24 12 26 19 28 22 30
ROOT
ATOM      1  O   UNL     1     104.219  94.650 113.636  1.00  0.00    -0.294 OA
ATOM      2  C   UNL     1     104.481  94.841 114.854  1.00  0.00     0.167 C 
ATOM      3  C   UNL     1     105.495  95.898 115.208  1.00  0.00     0.089 C 
ATOM      4  C   UNL     1     105.182  96.545 116.558  1.00  0.00     0.089 C 
ATOM      5  C   UNL     1     104.971  95.478 117.585  1.00  0.00     0.164 C 
ATOM      6  O   UNL     1     105.687  95.451 118.620  1.00  0.00    -0.294 OA
ATOM      7  C   UNL     1     104.028  94.382 117.279  1.00  0.00     0.041 A 
ATOM      8  C   UNL     1     103.839  94.010 115.920  1.00  0.00     0.075 A 
ATOM      9  C   UNL     1     103.064  92.856 115.595  1.00  0.00     0.169 A 
ATOM     10  C   UNL     1     102.483  92.076 116.630  1.00  0.00     0.166 A 
ATOM     11  C   UNL     1     102.647  92.499 117.948  1.00  0.00     0.037 A 
ATOM     12  C   UNL     1     103.360  93.649 118.272  1.00  0.00     0.006 A 
ATOM     13  C   UNL     1     103.212  93.848 119.731  1.00  0.00    -0.008 A 
ATOM     14  C   UNL     1     103.520  94.901 120.599  1.00  0.00     0.013 A 
ATOM     15  C   UNL     1     103.159  94.782 121.957  1.00  0.00     0.047 A 
ATOM     16  C   UNL     1     102.449  93.648 122.429  1.00  0.00     0.127 A 
ATOM     17  C   UNL     1     102.081  92.629 121.520  1.00  0.00     0.067 A 
ATOM     18  C   UNL     1     101.305  91.487 121.834  1.00  0.00     0.127 A 
ATOM     19  C   UNL     1     100.945  90.579 120.802  1.00  0.00     0.047 A 
ATOM     20  C   UNL     1     101.338  90.805 119.466  1.00  0.00     0.013 A 
ATOM     21  C   UNL     1     102.116  91.931 119.190  1.00  0.00    -0.005 A 
ATOM     22  C   UNL     1     102.482  92.783 120.197  1.00  0.00     0.005 A 
ENDROOT
BRANCH   9  23
ATOM     23  O   UNL     1     102.900  92.511 114.250  1.00  0.00    -0.504 OA
ATOM     24  H   UNL     1     102.610  93.195 113.596  1.00  0.00     0.293 HD
ENDBRANCH   9  23
BRANCH  10  25
ATOM     25  O   UNL     1     101.751  90.912 116.383  1.00  0.00    -0.504 OA
ATOM     26  H   UNL     1     101.989  90.331 115.617  1.00  0.00     0.293 HD
ENDBRANCH  10  25
BRANCH  16  27
ATOM     27  O   UNL     1     102.102  93.559 123.776  1.00  0.00    -0.507 OA
ATOM     28  H   UNL     1     102.079  94.376 124.336  1.00  0.00     0.293 HD
ENDBRANCH  16  27
BRANCH  18  29
ATOM     29  O   UNL     1     100.883  91.253 123.142  1.00  0.00    -0.507 OA
ATOM     30  H   UNL     1     101.128  91.887 123.861  1.00  0.00     0.293 HD
ENDBRANCH  18  29
TORSDOF 4
ENDMDL
MODEL 12
REMARK VINA RESULT:      -7.0      1.644      7.041
REMARK SMILES O=C1CCC(=O)c2c1c(O)c(O)c1c2-c2ccc(O)c3c(O)ccc-1c23
REMARK SMILES IDX 1 1 2 2 3 3 4 4 5 5 6 6 7 7 8 8 9 9 11 10 13 11 14 12 15 13
REMARK SMILES IDX 16 14 17 15 18 16 20 17 21 18 23 19 24 20 25 21 26 22 10 23
REMARK SMILES IDX 12 25 19 27 22 29
REMARK H PARENT 10 24 12 26 19 28 22 30
ROOT
ATOM      1  O   UNL     1     106.500  92.715 111.854  1.00  0.00    -0.294 OA
ATOM      2  C   UNL     1     106.356  93.793 112.490  1.00  0.00     0.167 C 
ATOM      3  C   UNL     1     106.574  95.090 111.754  1.00  0.00     0.089 C 
ATOM      4  C   UNL     1     105.689  96.206 112.312  1.00  0.00     0.089 C 
ATOM      5  C   UNL     1     105.844  96.269 113.798  1.00  0.00     0.164 C 
ATOM      6  O   UNL     1     106.229  97.336 114.345  1.00  0.00    -0.294 OA
ATOM      7  C   UNL     1     105.696  95.022 114.575  1.00  0.00     0.041 A 
ATOM      8  C   UNL     1     106.024  93.789 113.949  1.00  0.00     0.075 A 
ATOM      9  C   UNL     1     106.049  92.582 114.712  1.00  0.00     0.169 A 
ATOM     10  C   UNL     1     105.747  92.612 116.099  1.00  0.00     0.166 A 
ATOM     11  C   UNL     1     105.381  93.830 116.669  1.00  0.00     0.037 A 
ATOM     12  C   UNL     1     105.307  95.003 115.925  1.00  0.00     0.006 A 
ATOM     13  C   UNL     1     104.767  96.048 116.822  1.00  0.00    -0.008 A 
ATOM     14  C   UNL     1     104.290  97.348 116.616  1.00  0.00     0.013 A 
ATOM     15  C   UNL     1     103.761  98.052 117.717  1.00  0.00     0.047 A 
ATOM     16  C   UNL     1     103.657  97.445 118.994  1.00  0.00     0.127 A 
ATOM     17  C   UNL     1     104.074  96.104 119.164  1.00  0.00     0.067 A 
ATOM     18  C   UNL     1     103.954  95.348 120.356  1.00  0.00     0.127 A 
ATOM     19  C   UNL     1     104.347  93.984 120.363  1.00  0.00     0.047 A 
ATOM     20  C   UNL     1     104.844  93.365 119.196  1.00  0.00     0.013 A 
ATOM     21  C   UNL     1     104.966  94.139 118.041  1.00  0.00    -0.005 A 
ATOM     22  C   UNL     1     104.612  95.461 118.054  1.00  0.00     0.005 A 
ENDROOT
BRANCH   9  23
ATOM     23  O   UNL     1     106.381  91.385 114.070  1.00  0.00    -0.504 OA
ATOM     24  H   UNL     1     107.321  91.073 114.061  1.00  0.00     0.293 HD
ENDBRANCH   9  23
BRANCH  10  25
ATOM     25  O   UNL     1     105.796  91.477 116.912  1.00  0.00    -0.504 OA
ATOM     26  H   UNL     1     105.142  90.745 116.780  1.00  0.00     0.293 HD
ENDBRANCH  10  25
BRANCH  16  27
ATOM     27  O   UNL     1     103.125  98.165 120.063  1.00  0.00    -0.507 OA
ATOM     28  H   UNL     1     102.177  98.450 120.045  1.00  0.00     0.293 HD
ENDBRANCH  16  27
BRANCH  18  29
ATOM     29  O   UNL     1     103.443  95.929 121.516  1.00  0.00    -0.507 OA
ATOM     30  H   UNL     1     102.472  96.103 121.595  1.00  0.00     0.293 HD
ENDBRANCH  18  29
TORSDOF 4
ENDMDL
MODEL 13
REMARK VINA RESULT:      -6.9     17.895     21.645
REMARK SMILES O=C1CCC(=O)c2c1c(O)c(O)c1c2-c2ccc(O)c3c(O)ccc-1c23
REMARK SMILES IDX 1 1 2 2 3 3 4 4 5 5 6 6 7 7 8 8 9 9 11 10 13 11 14 12 15 13
REMARK SMILES IDX 16 14 17 15 18 16 20 17 21 18 23 19 24 20 25 21 26 22 10 23
REMARK SMILES IDX 12 25 19 27 22 29
REMARK H PARENT 10 24 12 26 19 28 22 30
ROOT
ATOM      1  O   UNL     1     124.019  84.034 103.412  1.00  0.00    -0.294 OA
ATOM      2  C   UNL     1     123.243  83.591 104.301  1.00  0.00     0.167 C 
ATOM      3  C   UNL     1     122.726  82.183 104.160  1.00  0.00     0.089 C 
ATOM      4  C   UNL     1     122.487  81.535 105.525  1.00  0.00     0.089 C 
ATOM      5  C   UNL     1     121.660  82.448 106.372  1.00  0.00     0.164 C 
ATOM      6  O   UNL     1     120.559  82.050 106.837  1.00  0.00    -0.294 OA
ATOM      7  C   UNL     1     122.082  83.858 106.509  1.00  0.00     0.041 A 
ATOM      8  C   UNL     1     122.807  84.455 105.442  1.00  0.00     0.075 A 
ATOM      9  C   UNL     1     123.093  85.854 105.466  1.00  0.00     0.169 A 
ATOM     10  C   UNL     1     122.651  86.651 106.555  1.00  0.00     0.166 A 
ATOM     11  C   UNL     1     121.985  86.023 107.606  1.00  0.00     0.037 A 
ATOM     12  C   UNL     1     121.745  84.653 107.617  1.00  0.00     0.006 A 
ATOM     13  C   UNL     1     121.145  84.332 108.930  1.00  0.00    -0.008 A 
ATOM     14  C   UNL     1     120.871  83.135 109.601  1.00  0.00     0.013 A 
ATOM     15  C   UNL     1     120.355  83.202 110.912  1.00  0.00     0.047 A 
ATOM     16  C   UNL     1     120.169  84.447 111.564  1.00  0.00     0.127 A 
ATOM     17  C   UNL     1     120.524  85.643 110.896  1.00  0.00     0.067 A 
ATOM     18  C   UNL     1     120.470  86.944 111.452  1.00  0.00     0.127 A 
ATOM     19  C   UNL     1     120.930  88.051 110.690  1.00  0.00     0.047 A 
ATOM     20  C   UNL     1     121.453  87.872 109.392  1.00  0.00     0.013 A 
ATOM     21  C   UNL     1     121.479  86.580 108.864  1.00  0.00    -0.005 A 
ATOM     22  C   UNL     1     121.006  85.525 109.596  1.00  0.00     0.005 A 
ENDROOT
BRANCH   9  23
ATOM     23  O   UNL     1     123.803  86.415 104.400  1.00  0.00    -0.504 OA
ATOM     24  H   UNL     1     124.212  87.312 104.496  1.00  0.00     0.293 HD
ENDBRANCH   9  23
BRANCH  10  25
ATOM     25  O   UNL     1     122.857  88.031 106.618  1.00  0.00    -0.504 OA
ATOM     26  H   UNL     1     123.778  88.396 106.590  1.00  0.00     0.293 HD
ENDBRANCH  10  25
BRANCH  16  27
ATOM     27  O   UNL     1     119.661  84.482 112.862  1.00  0.00    -0.507 OA
ATOM     28  H   UNL     1     120.001  85.151 113.508  1.00  0.00     0.293 HD
ENDBRANCH  16  27
BRANCH  18  29
ATOM     29  O   UNL     1     119.981  87.146 112.741  1.00  0.00    -0.507 OA
ATOM     30  H   UNL     1     120.070  88.033 113.171  1.00  0.00     0.293 HD
ENDBRANCH  18  29
TORSDOF 4
ENDMDL
MODEL 14
REMARK VINA RESULT:      -6.9     14.183     15.764
REMARK SMILES O=C1CCC(=O)c2c1c(O)c(O)c1c2-c2ccc(O)c3c(O)ccc-1c23
REMARK SMILES IDX 1 1 2 2 3 3 4 4 5 5 6 6 7 7 8 8 9 9 11 10 13 11 14 12 15 13
REMARK SMILES IDX 16 14 17 15 18 16 20 17 21 18 23 19 24 20 25 21 26 22 10 23
REMARK SMILES IDX 12 25 19 27 22 29
REMARK H PARENT 10 24 12 26 19 28 22 30
ROOT
ATOM      1  O   UNL     1     116.310 104.004 118.658  1.00  0.00    -0.294 OA
ATOM      2  C   UNL     1     116.837 103.583 119.722  1.00  0.00     0.167 C 
ATOM      3  C   UNL     1     116.961 104.535 120.883  1.00  0.00     0.089 C 
ATOM      4  C   UNL     1     116.869 103.802 122.222  1.00  0.00     0.089 C 
ATOM      5  C   UNL     1     117.819 102.648 122.225  1.00  0.00     0.164 C 
ATOM      6  O   UNL     1     118.714 102.572 123.108  1.00  0.00    -0.294 OA
ATOM      7  C   UNL     1     117.786 101.704 121.088  1.00  0.00     0.041 A 
ATOM      8  C   UNL     1     117.369 102.187 119.818  1.00  0.00     0.075 A 
ATOM      9  C   UNL     1     117.476 101.353 118.664  1.00  0.00     0.169 A 
ATOM     10  C   UNL     1     118.001 100.039 118.784  1.00  0.00     0.166 A 
ATOM     11  C   UNL     1     118.354  99.582 120.052  1.00  0.00     0.037 A 
ATOM     12  C   UNL     1     118.209 100.369 121.190  1.00  0.00     0.006 A 
ATOM     13  C   UNL     1     118.556  99.517 122.349  1.00  0.00    -0.008 A 
ATOM     14  C   UNL     1     118.420  99.667 123.733  1.00  0.00     0.013 A 
ATOM     15  C   UNL     1     118.793  98.591 124.566  1.00  0.00     0.047 A 
ATOM     16  C   UNL     1     119.242  97.363 124.019  1.00  0.00     0.127 A 
ATOM     17  C   UNL     1     119.300  97.206 122.614  1.00  0.00     0.067 A 
ATOM     18  C   UNL     1     119.649  96.015 121.932  1.00  0.00     0.127 A 
ATOM     19  C   UNL     1     119.592  95.978 120.514  1.00  0.00     0.047 A 
ATOM     20  C   UNL     1     119.180  97.106 119.773  1.00  0.00     0.013 A 
ATOM     21  C   UNL     1     118.858  98.270 120.472  1.00  0.00    -0.005 A 
ATOM     22  C   UNL     1     118.945  98.304 121.837  1.00  0.00     0.005 A 
ENDROOT
BRANCH   9  23
ATOM     23  O   UNL     1     117.062 101.857 117.427  1.00  0.00    -0.504 OA
ATOM     24  H   UNL     1     116.120 101.754 117.141  1.00  0.00     0.293 HD
ENDBRANCH   9  23
BRANCH  10  25
ATOM     25  O   UNL     1     118.174  99.188 117.690  1.00  0.00    -0.504 OA
ATOM     26  H   UNL     1     117.384  98.818 117.221  1.00  0.00     0.293 HD
ENDBRANCH  10  25
BRANCH  16  27
ATOM     27  O   UNL     1     119.600  96.316 124.867  1.00  0.00    -0.507 OA
ATOM     28  H   UNL     1     119.852  95.436 124.488  1.00  0.00     0.293 HD
ENDBRANCH  16  27
BRANCH  18  29
ATOM     29  O   UNL     1     120.035  94.878 122.641  1.00  0.00    -0.507 OA
ATOM     30  H   UNL     1     120.261  94.046 122.154  1.00  0.00     0.293 HD
ENDBRANCH  18  29
TORSDOF 4
ENDMDL
MODEL 15
REMARK VINA RESULT:      -6.8     18.288     21.259
REMARK SMILES O=C1CCC(=O)c2c1c(O)c(O)c1c2-c2ccc(O)c3c(O)ccc-1c23
REMARK SMILES IDX 1 1 2 2 3 3 4 4 5 5 6 6 7 7 8 8 9 9 11 10 13 11 14 12 15 13
REMARK SMILES IDX 16 14 17 15 18 16 20 17 21 18 23 19 24 20 25 21 26 22 10 23
REMARK SMILES IDX 12 25 19 27 22 29
REMARK H PARENT 10 24 12 26 19 28 22 30
ROOT
ATOM      1  O   UNL     1     120.294  86.797 112.007  1.00  0.00    -0.294 OA
ATOM      2  C   UNL     1     120.741  86.941 110.837  1.00  0.00     0.167 C 
ATOM      3  C   UNL     1     121.273  88.292 110.437  1.00  0.00     0.089 C 
ATOM      4  C   UNL     1     122.401  88.169 109.411  1.00  0.00     0.089 C 
ATOM      5  C   UNL     1     121.958  87.288 108.288  1.00  0.00     0.164 C 
ATOM      6  O   UNL     1     121.957  87.727 107.108  1.00  0.00    -0.294 OA
ATOM      7  C   UNL     1     121.377  85.969 108.613  1.00  0.00     0.041 A 
ATOM      8  C   UNL     1     120.700  85.814 109.854  1.00  0.00     0.075 A 
ATOM      9  C   UNL     1     119.989  84.608 110.135  1.00  0.00     0.169 A 
ATOM     10  C   UNL     1     119.954  83.563 109.174  1.00  0.00     0.166 A 
ATOM     11  C   UNL     1     120.669  83.730 107.990  1.00  0.00     0.037 A 
ATOM     12  C   UNL     1     121.406  84.881 107.726  1.00  0.00     0.006 A 
ATOM     13  C   UNL     1     122.125  84.648 106.454  1.00  0.00    -0.008 A 
ATOM     14  C   UNL     1     123.146  85.329 105.783  1.00  0.00     0.013 A 
ATOM     15  C   UNL     1     123.664  84.766 104.598  1.00  0.00     0.047 A 
ATOM     16  C   UNL     1     123.207  83.511 104.122  1.00  0.00     0.127 A 
ATOM     17  C   UNL     1     122.227  82.803 104.857  1.00  0.00     0.067 A 
ATOM     18  C   UNL     1     121.740  81.510 104.546  1.00  0.00     0.127 A 
ATOM     19  C   UNL     1     120.808  80.885 105.417  1.00  0.00     0.047 A 
ATOM     20  C   UNL     1     120.370  81.527 106.595  1.00  0.00     0.013 A 
ATOM     21  C   UNL     1     120.856  82.807 106.866  1.00  0.00    -0.005 A 
ATOM     22  C   UNL     1     121.730  83.412 106.005  1.00  0.00     0.005 A 
ENDROOT
BRANCH   9  23
ATOM     23  O   UNL     1     119.328  84.486 111.361  1.00  0.00    -0.504 OA
ATOM     24  H   UNL     1     118.383  84.192 111.387  1.00  0.00     0.293 HD
ENDBRANCH   9  23
BRANCH  10  25
ATOM     25  O   UNL     1     119.241  82.378 109.368  1.00  0.00    -0.504 OA
ATOM     26  H   UNL     1     119.407  81.598 108.780  1.00  0.00     0.293 HD
ENDBRANCH  10  25
BRANCH  16  27
ATOM     27  O   UNL     1     123.741  82.977 102.950  1.00  0.00    -0.507 OA
ATOM     28  H   UNL     1     124.621  83.288 102.621  1.00  0.00     0.293 HD
ENDBRANCH  16  27
BRANCH  18  29
ATOM     29  O   UNL     1     122.175  80.843 103.402  1.00  0.00    -0.507 OA
ATOM     30  H   UNL     1     122.566  81.355 102.651  1.00  0.00     0.293 HD
ENDBRANCH  18  29
TORSDOF 4
ENDMDL
