MODEL 1
REMARK VINA RESULT:      -9.6      0.000      0.000
REMARK SMILES Cc1nc(C)c2c(n1)N(Cc1ccc(-c3ccccc3-c3nnn[nH]3)cc1)C(=O)CC2
REMARK SMILES IDX 11 1 12 2 13 3 14 4 26 5 27 6 10 7 9 8 2 9 3 10 8 11 4 12
REMARK SMILES IDX 7 13 6 14 31 15 28 16 30 17 29 18 1 19 5 20 15 21 16 22
REMARK SMILES IDX 20 23 17 24 19 25 18 26 21 27 22 28 25 29 23 30 24 31
REMARK H PARENT 25 32
ROOT
ATOM      1  C   UNL     1     115.580  94.616 122.252  1.00  0.00    -0.028 A 
ATOM      2  C   UNL     1     116.328  95.592 122.930  1.00  0.00     0.006 A 
ATOM      3  C   UNL     1     117.579  95.985 122.447  1.00  0.00     0.009 A 
ATOM      4  C   UNL     1     118.103  95.403 121.282  1.00  0.00    -0.018 A 
ATOM      5  C   UNL     1     117.344  94.447 120.590  1.00  0.00     0.009 A 
ATOM      6  C   UNL     1     116.094  94.054 121.073  1.00  0.00     0.006 A 
ENDROOT
BRANCH   1   7
ATOM      7  C   UNL     1     114.259  94.145 122.801  1.00  0.00     0.162 C 
BRANCH   7   8
ATOM      8  N   UNL     1     113.389  95.295 123.094  1.00  0.00    -0.292 N 
ATOM      9  C   UNL     1     111.248  95.339 120.092  1.00  0.00     0.127 A 
ATOM     10  N   UNL     1     110.347  96.307 120.396  1.00  0.00    -0.238 NA
ATOM     11  N   UNL     1     112.226  95.027 120.977  1.00  0.00    -0.216 NA
ATOM     12  C   UNL     1     110.388  96.969 121.582  1.00  0.00     0.046 A 
ATOM     13  C   UNL     1     112.332  95.657 122.177  1.00  0.00     0.142 A 
ATOM     14  C   UNL     1     111.412  96.674 122.509  1.00  0.00     0.017 A 
ATOM     15  C   UNL     1     111.485  97.327 123.872  1.00  0.00     0.051 C 
ATOM     16  C   UNL     1     113.638  96.134 124.238  1.00  0.00     0.228 C 
ATOM     17  C   UNL     1     112.927  97.447 124.366  1.00  0.00     0.105 C 
ATOM     18  O   UNL     1     114.491  95.804 125.107  1.00  0.00    -0.274 OA
ATOM     19  C   UNL     1     111.199  94.662 118.764  1.00  0.00     0.090 C 
ATOM     20  C   UNL     1     109.340  98.009 121.856  1.00  0.00     0.067 C 
ENDBRANCH   7   8
ENDBRANCH   1   7
BRANCH   4  21
ATOM     21  C   UNL     1     119.440  95.801 120.787  1.00  0.00    -0.007 A 
ATOM     22  C   UNL     1     120.568  95.148 121.316  1.00  0.00     0.009 A 
ATOM     23  C   UNL     1     119.622  96.855 119.852  1.00  0.00     0.028 A 
ATOM     24  C   UNL     1     121.855  95.548 120.954  1.00  0.00     0.001 A 
ATOM     25  C   UNL     1     120.927  97.258 119.519  1.00  0.00     0.013 A 
ATOM     26  C   UNL     1     122.035  96.606 120.065  1.00  0.00     0.001 A 
BRANCH  23  27
ATOM     27  C   UNL     1     118.487  97.533 119.182  1.00  0.00     0.180 A 
ATOM     28  N   UNL     1     117.815  98.578 119.702  1.00  0.00    -0.109 NA
ATOM     29  N   UNL     1     118.021  97.250 117.952  1.00  0.00    -0.239 N 
ATOM     30  N   UNL     1     116.927  98.910 118.775  1.00  0.00    -0.024 NA
ATOM     31  N   UNL     1     117.051  98.115 117.723  1.00  0.00    -0.048 NA
ATOM     32  H   UNL     1     118.354  96.509 117.319  1.00  0.00     0.194 HD
ENDBRANCH  23  27
ENDBRANCH   4  21
TORSDOF 4
ENDMDL
MODEL 2
REMARK VINA RESULT:      -9.2      1.960      2.914
REMARK SMILES Cc1nc(C)c2c(n1)N(Cc1ccc(-c3ccccc3-c3nnn[nH]3)cc1)C(=O)CC2
REMARK SMILES IDX 11 1 12 2 13 3 14 4 26 5 27 6 10 7 9 8 2 9 3 10 8 11 4 12
REMARK SMILES IDX 7 13 6 14 31 15 28 16 30 17 29 18 1 19 5 20 15 21 16 22
REMARK SMILES IDX 20 23 17 24 19 25 18 26 21 27 22 28 25 29 23 30 24 31
REMARK H PARENT 25 32
ROOT
ATOM      1  C   UNL     1     115.549  96.034 122.599  1.00  0.00    -0.028 A 
ATOM      2  C   UNL     1     116.397  97.135 122.803  1.00  0.00     0.006 A 
ATOM      3  C   UNL     1     117.654  97.180 122.193  1.00  0.00     0.009 A 
ATOM      4  C   UNL     1     118.083  96.123 121.376  1.00  0.00    -0.018 A 
ATOM      5  C   UNL     1     117.225  95.035 121.152  1.00  0.00     0.009 A 
ATOM      6  C   UNL     1     115.969  94.990 121.761  1.00  0.00     0.006 A 
ENDROOT
BRANCH   1   7
ATOM      7  C   UNL     1     114.220  95.951 123.303  1.00  0.00     0.162 C 
BRANCH   7   8
ATOM      8  N   UNL     1     113.153  96.484 122.442  1.00  0.00    -0.292 N 
ATOM      9  C   UNL     1     113.135 100.030 123.455  1.00  0.00     0.127 A 
ATOM     10  N   UNL     1     112.251 100.574 122.581  1.00  0.00    -0.238 NA
ATOM     11  N   UNL     1     113.412  98.704 123.396  1.00  0.00    -0.216 NA
ATOM     12  C   UNL     1     111.641  99.823 121.627  1.00  0.00     0.046 A 
ATOM     13  C   UNL     1     112.829  97.893 122.473  1.00  0.00     0.142 A 
ATOM     14  C   UNL     1     111.900  98.436 121.562  1.00  0.00     0.017 A 
ATOM     15  C   UNL     1     111.304  97.550 120.490  1.00  0.00     0.051 C 
ATOM     16  C   UNL     1     112.348  95.602 121.635  1.00  0.00     0.228 C 
ATOM     17  C   UNL     1     111.099  96.118 120.988  1.00  0.00     0.105 C 
ATOM     18  O   UNL     1     112.652  94.384 121.511  1.00  0.00    -0.274 OA
ATOM     19  C   UNL     1     113.755 100.875 124.516  1.00  0.00     0.090 C 
ATOM     20  C   UNL     1     110.696 100.502 120.679  1.00  0.00     0.067 C 
ENDBRANCH   7   8
ENDBRANCH   1   7
BRANCH   4  21
ATOM     21  C   UNL     1     119.425  96.160 120.753  1.00  0.00    -0.007 A 
ATOM     22  C   UNL     1     120.466  95.440 121.368  1.00  0.00     0.009 A 
ATOM     23  C   UNL     1     119.708  96.945 119.603  1.00  0.00     0.028 A 
ATOM     24  C   UNL     1     121.770  95.517 120.876  1.00  0.00     0.001 A 
ATOM     25  C   UNL     1     121.033  97.027 119.139  1.00  0.00     0.013 A 
ATOM     26  C   UNL     1     122.054  96.316 119.770  1.00  0.00     0.001 A 
BRANCH  23  27
ATOM     27  C   UNL     1     118.654  97.661 118.846  1.00  0.00     0.180 A 
ATOM     28  N   UNL     1     118.402  98.979 118.959  1.00  0.00    -0.109 NA
ATOM     29  N   UNL     1     117.861  97.119 117.904  1.00  0.00    -0.239 N 
ATOM     30  N   UNL     1     117.434  99.220 118.085  1.00  0.00    -0.024 NA
ATOM     31  N   UNL     1     117.110  98.105 117.449  1.00  0.00    -0.048 NA
ATOM     32  H   UNL     1     117.843  96.135 117.601  1.00  0.00     0.194 HD
ENDBRANCH  23  27
ENDBRANCH   4  21
TORSDOF 4
ENDMDL
MODEL 3
REMARK VINA RESULT:      -8.4      2.519      7.471
REMARK SMILES Cc1nc(C)c2c(n1)N(Cc1ccc(-c3ccccc3-c3nnn[nH]3)cc1)C(=O)CC2
REMARK SMILES IDX 11 1 12 2 13 3 14 4 26 5 27 6 10 7 9 8 2 9 3 10 8 11 4 12
REMARK SMILES IDX 7 13 6 14 31 15 28 16 30 17 29 18 1 19 5 20 15 21 16 22
REMARK SMILES IDX 20 23 17 24 19 25 18 26 21 27 22 28 25 29 23 30 24 31
REMARK H PARENT 25 32
ROOT
ATOM      1  C   UNL     1     113.632  96.202 123.275  1.00  0.00    -0.028 A 
ATOM      2  C   UNL     1     113.617  97.473 123.873  1.00  0.00     0.006 A 
ATOM      3  C   UNL     1     112.779  98.475 123.378  1.00  0.00     0.009 A 
ATOM      4  C   UNL     1     111.949  98.225 122.275  1.00  0.00    -0.018 A 
ATOM      5  C   UNL     1     111.945  96.947 121.693  1.00  0.00     0.009 A 
ATOM      6  C   UNL     1     112.783  95.945 122.188  1.00  0.00     0.006 A 
ENDROOT
BRANCH   1   7
ATOM      7  C   UNL     1     114.577  95.137 123.765  1.00  0.00     0.162 C 
BRANCH   7   8
ATOM      8  N   UNL     1     115.598  94.852 122.744  1.00  0.00    -0.292 N 
ATOM      9  C   UNL     1     118.098  97.455 123.501  1.00  0.00     0.127 A 
ATOM     10  N   UNL     1     119.113  97.131 122.660  1.00  0.00    -0.238 NA
ATOM     11  N   UNL     1     116.968  96.707 123.512  1.00  0.00    -0.216 NA
ATOM     12  C   UNL     1     119.035  96.057 121.831  1.00  0.00     0.046 A 
ATOM     13  C   UNL     1     116.819  95.625 122.701  1.00  0.00     0.142 A 
ATOM     14  C   UNL     1     117.857  95.277 121.812  1.00  0.00     0.017 A 
ATOM     15  C   UNL     1     117.723  94.033 120.961  1.00  0.00     0.051 C 
ATOM     16  C   UNL     1     115.356  93.874 121.714  1.00  0.00     0.228 C 
ATOM     17  C   UNL     1     116.273  93.794 120.533  1.00  0.00     0.105 C 
ATOM     18  O   UNL     1     114.347  93.118 121.766  1.00  0.00    -0.274 OA
ATOM     19  C   UNL     1     118.200  98.664 124.366  1.00  0.00     0.090 C 
ATOM     20  C   UNL     1     120.210  95.748 120.950  1.00  0.00     0.067 C 
ENDBRANCH   7   8
ENDBRANCH   1   7
BRANCH   4  21
ATOM     21  C   UNL     1     111.082  99.296 121.735  1.00  0.00    -0.007 A 
ATOM     22  C   UNL     1     109.726  99.309 122.110  1.00  0.00     0.009 A 
ATOM     23  C   UNL     1     111.556 100.262 120.808  1.00  0.00     0.028 A 
ATOM     24  C   UNL     1     108.845 100.238 121.556  1.00  0.00     0.001 A 
ATOM     25  C   UNL     1     110.646 101.174 120.244  1.00  0.00     0.013 A 
ATOM     26  C   UNL     1     109.301 101.163 120.619  1.00  0.00     0.001 A 
BRANCH  23  27
ATOM     27  C   UNL     1     112.984 100.373 120.429  1.00  0.00     0.180 A 
ATOM     28  N   UNL     1     113.854 101.233 120.993  1.00  0.00    -0.109 NA
ATOM     29  N   UNL     1     113.619  99.595 119.534  1.00  0.00    -0.239 N 
ATOM     30  N   UNL     1     115.018 100.975 120.412  1.00  0.00    -0.024 NA
ATOM     31  N   UNL     1     114.879  99.989 119.538  1.00  0.00    -0.048 NA
ATOM     32  H   UNL     1     113.206  98.845 118.962  1.00  0.00     0.194 HD
ENDBRANCH  23  27
ENDBRANCH   4  21
TORSDOF 4
ENDMDL
MODEL 4
REMARK VINA RESULT:      -8.3      2.179      8.201
REMARK SMILES Cc1nc(C)c2c(n1)N(Cc1ccc(-c3ccccc3-c3nnn[nH]3)cc1)C(=O)CC2
REMARK SMILES IDX 11 1 12 2 13 3 14 4 26 5 27 6 10 7 9 8 2 9 3 10 8 11 4 12
REMARK SMILES IDX 7 13 6 14 31 15 28 16 30 17 29 18 1 19 5 20 15 21 16 22
REMARK SMILES IDX 20 23 17 24 19 25 18 26 21 27 22 28 25 29 23 30 24 31
REMARK H PARENT 25 32
ROOT
ATOM      1  C   UNL     1     114.380  96.515 124.142  1.00  0.00    -0.028 A 
ATOM      2  C   UNL     1     114.332  97.593 123.243  1.00  0.00     0.006 A 
ATOM      3  C   UNL     1     113.106  98.169 122.897  1.00  0.00     0.009 A 
ATOM      4  C   UNL     1     111.912  97.672 123.439  1.00  0.00    -0.018 A 
ATOM      5  C   UNL     1     111.962  96.611 124.358  1.00  0.00     0.009 A 
ATOM      6  C   UNL     1     113.187  96.035 124.704  1.00  0.00     0.006 A 
ENDROOT
BRANCH   1   7
ATOM      7  C   UNL     1     115.691  95.851 124.471  1.00  0.00     0.162 C 
BRANCH   7   8
ATOM      8  N   UNL     1     116.399  95.479 123.236  1.00  0.00    -0.292 N 
ATOM      9  C   UNL     1     118.946  98.139 123.055  1.00  0.00     0.127 A 
ATOM     10  N   UNL     1     119.698  97.745 121.997  1.00  0.00    -0.238 NA
ATOM     11  N   UNL     1     117.881  97.394 123.440  1.00  0.00    -0.216 NA
ATOM     12  C   UNL     1     119.422  96.602 121.315  1.00  0.00     0.046 A 
ATOM     13  C   UNL     1     117.542  96.246 122.795  1.00  0.00     0.142 A 
ATOM     14  C   UNL     1     118.304  95.823 121.686  1.00  0.00     0.017 A 
ATOM     15  C   UNL     1     117.971  94.510 121.011  1.00  0.00     0.051 C 
ATOM     16  C   UNL     1     115.907  94.415 122.399  1.00  0.00     0.228 C 
ATOM     17  C   UNL     1     116.467  94.234 121.021  1.00  0.00     0.105 C 
ATOM     18  O   UNL     1     114.970  93.666 122.789  1.00  0.00    -0.274 OA
ATOM     19  C   UNL     1     119.252  99.419 123.755  1.00  0.00     0.090 C 
ATOM     20  C   UNL     1     120.317  96.219 120.173  1.00  0.00     0.067 C 
ENDBRANCH   7   8
ENDBRANCH   1   7
BRANCH   4  21
ATOM     21  C   UNL     1     110.612  98.265 123.051  1.00  0.00    -0.007 A 
ATOM     22  C   UNL     1     110.116  99.340 123.811  1.00  0.00     0.009 A 
ATOM     23  C   UNL     1     109.828  97.746 121.986  1.00  0.00     0.028 A 
ATOM     24  C   UNL     1     108.855  99.874 123.547  1.00  0.00     0.001 A 
ATOM     25  C   UNL     1     108.549  98.283 121.753  1.00  0.00     0.013 A 
ATOM     26  C   UNL     1     108.069  99.341 122.527  1.00  0.00     0.001 A 
BRANCH  23  27
ATOM     27  C   UNL     1     110.314  96.676 121.084  1.00  0.00     0.180 A 
ATOM     28  N   UNL     1     111.322  96.826 120.205  1.00  0.00    -0.109 NA
ATOM     29  N   UNL     1     109.871  95.406 121.066  1.00  0.00    -0.239 N 
ATOM     30  N   UNL     1     111.470  95.634 119.643  1.00  0.00    -0.024 NA
ATOM     31  N   UNL     1     110.600  94.779 120.161  1.00  0.00    -0.048 NA
ATOM     32  H   UNL     1     109.116  95.005 121.639  1.00  0.00     0.194 HD
ENDBRANCH  23  27
ENDBRANCH   4  21
TORSDOF 4
ENDMDL
MODEL 5
REMARK VINA RESULT:      -8.2      1.855      2.784
REMARK SMILES Cc1nc(C)c2c(n1)N(Cc1ccc(-c3ccccc3-c3nnn[nH]3)cc1)C(=O)CC2
REMARK SMILES IDX 11 1 12 2 13 3 14 4 26 5 27 6 10 7 9 8 2 9 3 10 8 11 4 12
REMARK SMILES IDX 7 13 6 14 31 15 28 16 30 17 29 18 1 19 5 20 15 21 16 22
REMARK SMILES IDX 20 23 17 24 19 25 18 26 21 27 22 28 25 29 23 30 24 31
REMARK H PARENT 25 32
ROOT
ATOM      1  C   UNL     1     116.203  97.940 123.135  1.00  0.00    -0.028 A 
ATOM      2  C   UNL     1     116.742  96.650 123.264  1.00  0.00     0.006 A 
ATOM      3  C   UNL     1     117.897  96.294 122.562  1.00  0.00     0.009 A 
ATOM      4  C   UNL     1     118.525  97.219 121.716  1.00  0.00    -0.018 A 
ATOM      5  C   UNL     1     118.000  98.517 121.606  1.00  0.00     0.009 A 
ATOM      6  C   UNL     1     116.846  98.873 122.308  1.00  0.00     0.006 A 
ENDROOT
BRANCH   1   7
ATOM      7  C   UNL     1     114.925  98.310 123.841  1.00  0.00     0.162 C 
BRANCH   7   8
ATOM      8  N   UNL     1     113.790  98.255 122.905  1.00  0.00    -0.292 N 
ATOM      9  C   UNL     1     113.526  94.623 122.327  1.00  0.00     0.127 A 
ATOM     10  N   UNL     1     112.402  94.534 121.572  1.00  0.00    -0.238 NA
ATOM     11  N   UNL     1     113.961  95.837 122.747  1.00  0.00    -0.216 NA
ATOM     12  C   UNL     1     111.683  95.637 121.234  1.00  0.00     0.046 A 
ATOM     13  C   UNL     1     113.295  96.981 122.437  1.00  0.00     0.142 A 
ATOM     14  C   UNL     1     112.130  96.912 121.644  1.00  0.00     0.017 A 
ATOM     15  C   UNL     1     111.350  98.176 121.356  1.00  0.00     0.051 C 
ATOM     16  C   UNL     1     113.225  99.465 122.364  1.00  0.00     0.228 C 
ATOM     17  C   UNL     1     112.270  99.389 121.212  1.00  0.00     0.105 C 
ATOM     18  O   UNL     1     113.567 100.594 122.810  1.00  0.00    -0.274 OA
ATOM     19  C   UNL     1     114.314  93.398 122.644  1.00  0.00     0.090 C 
ATOM     20  C   UNL     1     110.436  95.453 120.419  1.00  0.00     0.067 C 
ENDBRANCH   7   8
ENDBRANCH   1   7
BRANCH   4  21
ATOM     21  C   UNL     1     119.732  96.832 120.951  1.00  0.00    -0.007 A 
ATOM     22  C   UNL     1     120.737  96.106 121.616  1.00  0.00     0.009 A 
ATOM     23  C   UNL     1     119.935  97.225 119.601  1.00  0.00     0.028 A 
ATOM     24  C   UNL     1     121.935  95.798 120.971  1.00  0.00     0.001 A 
ATOM     25  C   UNL     1     121.160  96.925 118.978  1.00  0.00     0.013 A 
ATOM     26  C   UNL     1     122.150  96.214 119.658  1.00  0.00     0.001 A 
BRANCH  23  27
ATOM     27  C   UNL     1     118.893  97.914 118.804  1.00  0.00     0.180 A 
ATOM     28  N   UNL     1     117.843  97.294 118.232  1.00  0.00    -0.109 NA
ATOM     29  N   UNL     1     118.812  99.241 118.603  1.00  0.00    -0.239 N 
ATOM     30  N   UNL     1     117.137  98.265 117.668  1.00  0.00    -0.024 NA
ATOM     31  N   UNL     1     117.716  99.435 117.892  1.00  0.00    -0.048 NA
ATOM     32  H   UNL     1     119.470  99.959 118.935  1.00  0.00     0.194 HD
ENDBRANCH  23  27
ENDBRANCH   4  21
TORSDOF 4
ENDMDL
MODEL 6
REMARK VINA RESULT:      -8.2     10.989     12.901
REMARK SMILES Cc1nc(C)c2c(n1)N(Cc1ccc(-c3ccccc3-c3nnn[nH]3)cc1)C(=O)CC2
REMARK SMILES IDX 11 1 12 2 13 3 14 4 26 5 27 6 10 7 9 8 2 9 3 10 8 11 4 12
REMARK SMILES IDX 7 13 6 14 31 15 28 16 30 17 29 18 1 19 5 20 15 21 16 22
REMARK SMILES IDX 20 23 17 24 19 25 18 26 21 27 22 28 25 29 23 30 24 31
REMARK H PARENT 25 32
ROOT
ATOM      1  C   UNL     1     105.705  94.217 117.789  1.00  0.00    -0.028 A 
ATOM      2  C   UNL     1     104.693  94.939 117.137  1.00  0.00     0.006 A 
ATOM      3  C   UNL     1     104.784  95.205 115.768  1.00  0.00     0.009 A 
ATOM      4  C   UNL     1     105.893  94.759 115.032  1.00  0.00    -0.018 A 
ATOM      5  C   UNL     1     106.893  94.015 115.679  1.00  0.00     0.009 A 
ATOM      6  C   UNL     1     106.801  93.749 117.047  1.00  0.00     0.006 A 
ENDROOT
BRANCH   1   7
ATOM      7  C   UNL     1     105.642  93.981 119.275  1.00  0.00     0.162 C 
BRANCH   7   8
ATOM      8  N   UNL     1     104.618  94.843 119.886  1.00  0.00    -0.292 N 
ATOM      9  C   UNL     1     101.824  92.465 120.254  1.00  0.00     0.127 A 
ATOM     10  N   UNL     1     100.910  93.199 120.938  1.00  0.00    -0.238 NA
ATOM     11  N   UNL     1     103.017  93.015 119.920  1.00  0.00    -0.216 NA
ATOM     12  C   UNL     1     101.166  94.479 121.317  1.00  0.00     0.046 A 
ATOM     13  C   UNL     1     103.334  94.293 120.259  1.00  0.00     0.142 A 
ATOM     14  C   UNL     1     102.395  95.078 120.960  1.00  0.00     0.017 A 
ATOM     15  C   UNL     1     102.772  96.476 121.399  1.00  0.00     0.051 C 
ATOM     16  C   UNL     1     104.837  96.260 120.026  1.00  0.00     0.228 C 
ATOM     17  C   UNL     1     103.693  97.158 120.385  1.00  0.00     0.105 C 
ATOM     18  O   UNL     1     105.971  96.764 119.796  1.00  0.00    -0.274 OA
ATOM     19  C   UNL     1     101.494  91.078 119.818  1.00  0.00     0.090 C 
ATOM     20  C   UNL     1     100.116  95.217 122.094  1.00  0.00     0.067 C 
ENDBRANCH   7   8
ENDBRANCH   1   7
BRANCH   4  21
ATOM     21  C   UNL     1     106.002  95.064 113.588  1.00  0.00    -0.007 A 
ATOM     22  C   UNL     1     106.520  96.316 113.209  1.00  0.00     0.009 A 
ATOM     23  C   UNL     1     105.544  94.169 112.585  1.00  0.00     0.028 A 
ATOM     24  C   UNL     1     106.556  96.693 111.866  1.00  0.00     0.001 A 
ATOM     25  C   UNL     1     105.567  94.578 111.240  1.00  0.00     0.013 A 
ATOM     26  C   UNL     1     106.073  95.829 110.884  1.00  0.00     0.001 A 
BRANCH  23  27
ATOM     27  C   UNL     1     105.067  92.800 112.894  1.00  0.00     0.180 A 
ATOM     28  N   UNL     1     103.823  92.509 113.318  1.00  0.00    -0.109 NA
ATOM     29  N   UNL     1     105.776  91.669 112.729  1.00  0.00    -0.239 N 
ATOM     30  N   UNL     1     103.797  91.187 113.424  1.00  0.00    -0.024 NA
ATOM     31  N   UNL     1     104.968  90.681 113.068  1.00  0.00    -0.048 NA
ATOM     32  H   UNL     1     106.750  91.590 112.405  1.00  0.00     0.194 HD
ENDBRANCH  23  27
ENDBRANCH   4  21
TORSDOF 4
ENDMDL
MODEL 7
REMARK VINA RESULT:      -8.1      1.091      1.187
REMARK SMILES Cc1nc(C)c2c(n1)N(Cc1ccc(-c3ccccc3-c3nnn[nH]3)cc1)C(=O)CC2
REMARK SMILES IDX 11 1 12 2 13 3 14 4 26 5 27 6 10 7 9 8 2 9 3 10 8 11 4 12
REMARK SMILES IDX 7 13 6 14 31 15 28 16 30 17 29 18 1 19 5 20 15 21 16 22
REMARK SMILES IDX 20 23 17 24 19 25 18 26 21 27 22 28 25 29 23 30 24 31
REMARK H PARENT 25 32
ROOT
ATOM      1  C   UNL     1     115.755  95.806 122.766  1.00  0.00    -0.028 A 
ATOM      2  C   UNL     1     116.673  96.813 123.106  1.00  0.00     0.006 A 
ATOM      3  C   UNL     1     117.898  96.905 122.440  1.00  0.00     0.009 A 
ATOM      4  C   UNL     1     118.227  95.987 121.431  1.00  0.00    -0.018 A 
ATOM      5  C   UNL     1     117.299  94.996 121.074  1.00  0.00     0.009 A 
ATOM      6  C   UNL     1     116.074  94.904 121.739  1.00  0.00     0.006 A 
ENDROOT
BRANCH   1   7
ATOM      7  C   UNL     1     114.460  95.664 123.520  1.00  0.00     0.162 C 
BRANCH   7   8
ATOM      8  N   UNL     1     113.681  96.910 123.435  1.00  0.00    -0.292 N 
ATOM      9  C   UNL     1     111.359  96.103 120.686  1.00  0.00     0.127 A 
ATOM     10  N   UNL     1     110.540  97.185 120.675  1.00  0.00    -0.238 NA
ATOM     11  N   UNL     1     112.371  96.033 121.585  1.00  0.00    -0.216 NA
ATOM     12  C   UNL     1     110.697  98.204 121.561  1.00  0.00     0.046 A 
ATOM     13  C   UNL     1     112.591  97.022 122.492  1.00  0.00     0.142 A 
ATOM     14  C   UNL     1     111.758  98.161 122.491  1.00  0.00     0.017 A 
ATOM     15  C   UNL     1     111.957  99.229 123.544  1.00  0.00     0.051 C 
ATOM     16  C   UNL     1     114.053  98.065 124.211  1.00  0.00     0.228 C 
ATOM     17  C   UNL     1     113.433  99.395 123.910  1.00  0.00     0.105 C 
ATOM     18  O   UNL     1     114.938  97.983 125.107  1.00  0.00    -0.274 OA
ATOM     19  C   UNL     1     111.184  95.022 119.674  1.00  0.00     0.090 C 
ATOM     20  C   UNL     1     109.734  99.354 121.503  1.00  0.00     0.067 C 
ENDBRANCH   7   8
ENDBRANCH   1   7
BRANCH   4  21
ATOM     21  C   UNL     1     119.537  96.068 120.747  1.00  0.00    -0.007 A 
ATOM     22  C   UNL     1     120.615  95.337 121.280  1.00  0.00     0.009 A 
ATOM     23  C   UNL     1     119.755  96.905 119.619  1.00  0.00     0.028 A 
ATOM     24  C   UNL     1     121.892  95.453 120.730  1.00  0.00     0.001 A 
ATOM     25  C   UNL     1     121.055  97.025 119.096  1.00  0.00     0.013 A 
ATOM     26  C   UNL     1     122.114  96.301 119.647  1.00  0.00     0.001 A 
BRANCH  23  27
ATOM     27  C   UNL     1     118.657  97.638 118.945  1.00  0.00     0.180 A 
ATOM     28  N   UNL     1     118.408  98.950 119.112  1.00  0.00    -0.109 NA
ATOM     29  N   UNL     1     117.815  97.120 118.033  1.00  0.00    -0.239 N 
ATOM     30  N   UNL     1     117.392  99.213 118.302  1.00  0.00    -0.024 NA
ATOM     31  N   UNL     1     117.036  98.116 117.651  1.00  0.00    -0.048 NA
ATOM     32  H   UNL     1     117.783  96.146 117.702  1.00  0.00     0.194 HD
ENDBRANCH  23  27
ENDBRANCH   4  21
TORSDOF 4
ENDMDL
MODEL 8
REMARK VINA RESULT:      -8.0      4.396      7.280
REMARK SMILES Cc1nc(C)c2c(n1)N(Cc1ccc(-c3ccccc3-c3nnn[nH]3)cc1)C(=O)CC2
REMARK SMILES IDX 11 1 12 2 13 3 14 4 26 5 27 6 10 7 9 8 2 9 3 10 8 11 4 12
REMARK SMILES IDX 7 13 6 14 31 15 28 16 30 17 29 18 1 19 5 20 15 21 16 22
REMARK SMILES IDX 20 23 17 24 19 25 18 26 21 27 22 28 25 29 23 30 24 31
REMARK H PARENT 25 32
ROOT
ATOM      1  C   UNL     1     119.105  99.583 120.330  1.00  0.00    -0.028 A 
ATOM      2  C   UNL     1     119.071 100.938 120.699  1.00  0.00     0.006 A 
ATOM      3  C   UNL     1     118.353 101.860 119.933  1.00  0.00     0.009 A 
ATOM      4  C   UNL     1     117.664 101.443 118.784  1.00  0.00    -0.018 A 
ATOM      5  C   UNL     1     117.677 100.084 118.430  1.00  0.00     0.009 A 
ATOM      6  C   UNL     1     118.395  99.163 119.195  1.00  0.00     0.006 A 
ENDROOT
BRANCH   1   7
ATOM      7  C   UNL     1     119.927  98.596 121.116  1.00  0.00     0.162 C 
BRANCH   7   8
ATOM      8  N   UNL     1     119.136  97.390 121.407  1.00  0.00    -0.292 N 
ATOM      9  C   UNL     1     117.053  98.571 124.211  1.00  0.00     0.127 A 
ATOM     10  N   UNL     1     116.219  97.520 124.412  1.00  0.00    -0.238 NA
ATOM     11  N   UNL     1     117.992  98.510 123.236  1.00  0.00    -0.216 NA
ATOM     12  C   UNL     1     116.288  96.401 123.644  1.00  0.00     0.046 A 
ATOM     13  C   UNL     1     118.123  97.416 122.438  1.00  0.00     0.142 A 
ATOM     14  C   UNL     1     117.273  96.308 122.636  1.00  0.00     0.017 A 
ATOM     15  C   UNL     1     117.369  95.120 121.704  1.00  0.00     0.051 C 
ATOM     16  C   UNL     1     119.426  96.143 120.746  1.00  0.00     0.228 C 
ATOM     17  C   UNL     1     118.809  94.874 121.248  1.00  0.00     0.105 C 
ATOM     18  O   UNL     1     120.238  96.097 119.781  1.00  0.00    -0.274 OA
ATOM     19  C   UNL     1     116.978  99.766 125.100  1.00  0.00     0.090 C 
ATOM     20  C   UNL     1     115.313  95.291 123.910  1.00  0.00     0.067 C 
ENDBRANCH   7   8
ENDBRANCH   1   7
BRANCH   4  21
ATOM     21  C   UNL     1     116.927 102.425 117.958  1.00  0.00    -0.007 A 
ATOM     22  C   UNL     1     117.532 102.892 116.777  1.00  0.00     0.009 A 
ATOM     23  C   UNL     1     115.669 102.956 118.351  1.00  0.00     0.028 A 
ATOM     24  C   UNL     1     116.923 103.887 116.012  1.00  0.00     0.001 A 
ATOM     25  C   UNL     1     115.085 103.976 117.578  1.00  0.00     0.013 A 
ATOM     26  C   UNL     1     115.707 104.435 116.416  1.00  0.00     0.001 A 
BRANCH  23  27
ATOM     27  C   UNL     1     114.925 102.457 119.531  1.00  0.00     0.180 A 
ATOM     28  N   UNL     1     114.246 101.295 119.563  1.00  0.00    -0.109 NA
ATOM     29  N   UNL     1     114.882 103.050 120.738  1.00  0.00    -0.239 N 
ATOM     30  N   UNL     1     113.778 101.204 120.800  1.00  0.00    -0.024 NA
ATOM     31  N   UNL     1     114.161 102.256 121.508  1.00  0.00    -0.048 NA
ATOM     32  H   UNL     1     115.320 103.942 121.005  1.00  0.00     0.194 HD
ENDBRANCH  23  27
ENDBRANCH   4  21
TORSDOF 4
ENDMDL
MODEL 9
REMARK VINA RESULT:      -7.9      5.133      7.694
REMARK SMILES Cc1nc(C)c2c(n1)N(Cc1ccc(-c3ccccc3-c3nnn[nH]3)cc1)C(=O)CC2
REMARK SMILES IDX 11 1 12 2 13 3 14 4 26 5 27 6 10 7 9 8 2 9 3 10 8 11 4 12
REMARK SMILES IDX 7 13 6 14 31 15 28 16 30 17 29 18 1 19 5 20 15 21 16 22
REMARK SMILES IDX 20 23 17 24 19 25 18 26 21 27 22 28 25 29 23 30 24 31
REMARK H PARENT 25 32
ROOT
ATOM      1  C   UNL     1     118.057 101.790 121.015  1.00  0.00    -0.028 A 
ATOM      2  C   UNL     1     117.947 100.903 119.932  1.00  0.00     0.006 A 
ATOM      3  C   UNL     1     118.348  99.571 120.068  1.00  0.00     0.009 A 
ATOM      4  C   UNL     1     118.871  99.109 121.285  1.00  0.00    -0.018 A 
ATOM      5  C   UNL     1     118.956  99.990 122.375  1.00  0.00     0.009 A 
ATOM      6  C   UNL     1     118.555 101.320 122.240  1.00  0.00     0.006 A 
ENDROOT
BRANCH   1   7
ATOM      7  C   UNL     1     117.684 103.241 120.857  1.00  0.00     0.162 C 
BRANCH   7   8
ATOM      8  N   UNL     1     116.562 103.380 119.914  1.00  0.00    -0.292 N 
ATOM      9  C   UNL     1     118.335 104.453 116.864  1.00  0.00     0.127 A 
ATOM     10  N   UNL     1     117.340 104.460 115.941  1.00  0.00    -0.238 NA
ATOM     11  N   UNL     1     118.063 104.103 118.145  1.00  0.00    -0.216 NA
ATOM     12  C   UNL     1     116.068 104.105 116.264  1.00  0.00     0.046 A 
ATOM     13  C   UNL     1     116.811 103.748 118.538  1.00  0.00     0.142 A 
ATOM     14  C   UNL     1     115.760 103.758 117.598  1.00  0.00     0.017 A 
ATOM     15  C   UNL     1     114.381 103.296 118.017  1.00  0.00     0.051 C 
ATOM     16  C   UNL     1     115.201 103.253 120.367  1.00  0.00     0.228 C 
ATOM     17  C   UNL     1     114.076 103.669 119.469  1.00  0.00     0.105 C 
ATOM     18  O   UNL     1     114.943 102.847 121.533  1.00  0.00    -0.274 OA
ATOM     19  C   UNL     1     119.710 104.887 116.484  1.00  0.00     0.090 C 
ATOM     20  C   UNL     1     115.028 104.112 115.181  1.00  0.00     0.067 C 
ENDBRANCH   7   8
ENDBRANCH   1   7
BRANCH   4  21
ATOM     21  C   UNL     1     119.321  97.705 121.419  1.00  0.00    -0.007 A 
ATOM     22  C   UNL     1     120.616  97.375 120.978  1.00  0.00     0.009 A 
ATOM     23  C   UNL     1     118.472  96.679 121.912  1.00  0.00     0.028 A 
ATOM     24  C   UNL     1     121.055  96.051 120.993  1.00  0.00     0.001 A 
ATOM     25  C   UNL     1     118.926  95.348 121.896  1.00  0.00     0.013 A 
ATOM     26  C   UNL     1     120.209  95.038 121.443  1.00  0.00     0.001 A 
BRANCH  23  27
ATOM     27  C   UNL     1     117.129  96.955 122.476  1.00  0.00     0.180 A 
ATOM     28  N   UNL     1     116.893  97.218 123.776  1.00  0.00    -0.109 NA
ATOM     29  N   UNL     1     115.988  97.049 121.771  1.00  0.00    -0.239 N 
ATOM     30  N   UNL     1     115.590  97.455 123.846  1.00  0.00    -0.024 NA
ATOM     31  N   UNL     1     115.046  97.356 122.643  1.00  0.00    -0.048 NA
ATOM     32  H   UNL     1     115.873  96.909 120.758  1.00  0.00     0.194 HD
ENDBRANCH  23  27
ENDBRANCH   4  21
TORSDOF 4
ENDMDL
MODEL 10
REMARK VINA RESULT:      -7.9      2.565      3.642
REMARK SMILES Cc1nc(C)c2c(n1)N(Cc1ccc(-c3ccccc3-c3nnn[nH]3)cc1)C(=O)CC2
REMARK SMILES IDX 11 1 12 2 13 3 14 4 26 5 27 6 10 7 9 8 2 9 3 10 8 11 4 12
REMARK SMILES IDX 7 13 6 14 31 15 28 16 30 17 29 18 1 19 5 20 15 21 16 22
REMARK SMILES IDX 20 23 17 24 19 25 18 26 21 27 22 28 25 29 23 30 24 31
REMARK H PARENT 25 32
ROOT
ATOM      1  C   UNL     1     114.962  98.796 122.811  1.00  0.00    -0.028 A 
ATOM      2  C   UNL     1     115.063  99.228 121.479  1.00  0.00     0.006 A 
ATOM      3  C   UNL     1     116.273  99.111 120.789  1.00  0.00     0.009 A 
ATOM      4  C   UNL     1     117.400  98.567 121.423  1.00  0.00    -0.018 A 
ATOM      5  C   UNL     1     117.291  98.110 122.746  1.00  0.00     0.009 A 
ATOM      6  C   UNL     1     116.083  98.227 123.436  1.00  0.00     0.006 A 
ENDROOT
BRANCH   1   7
ATOM      7  C   UNL     1     113.679  98.975 123.579  1.00  0.00     0.162 C 
BRANCH   7   8
ATOM      8  N   UNL     1     112.525  98.637 122.731  1.00  0.00    -0.292 N 
ATOM      9  C   UNL     1     113.152  95.062 122.080  1.00  0.00     0.127 A 
ATOM     10  N   UNL     1     112.032  94.692 121.410  1.00  0.00    -0.238 NA
ATOM     11  N   UNL     1     113.295  96.344 122.497  1.00  0.00    -0.216 NA
ATOM     12  C   UNL     1     111.029  95.574 121.157  1.00  0.00     0.046 A 
ATOM     13  C   UNL     1     112.336  97.281 122.268  1.00  0.00     0.142 A 
ATOM     14  C   UNL     1     111.168  96.919 121.565  1.00  0.00     0.017 A 
ATOM     15  C   UNL     1     110.069  97.942 121.371  1.00  0.00     0.051 C 
ATOM     16  C   UNL     1     111.628  99.664 122.266  1.00  0.00     0.228 C 
ATOM     17  C   UNL     1     110.634  99.352 121.189  1.00  0.00     0.105 C 
ATOM     18  O   UNL     1     111.704 100.840 122.715  1.00  0.00    -0.274 OA
ATOM     19  C   UNL     1     114.250  94.078 122.304  1.00  0.00     0.090 C 
ATOM     20  C   UNL     1     109.810  95.081 120.434  1.00  0.00     0.067 C 
ENDBRANCH   7   8
ENDBRANCH   1   7
BRANCH   4  21
ATOM     21  C   UNL     1     118.688  98.469 120.699  1.00  0.00    -0.007 A 
ATOM     22  C   UNL     1     119.458  99.636 120.548  1.00  0.00     0.009 A 
ATOM     23  C   UNL     1     119.134  97.259 120.103  1.00  0.00     0.028 A 
ATOM     24  C   UNL     1     120.632  99.620 119.795  1.00  0.00     0.001 A 
ATOM     25  C   UNL     1     120.307  97.270 119.327  1.00  0.00     0.013 A 
ATOM     26  C   UNL     1     121.051  98.442 119.178  1.00  0.00     0.001 A 
BRANCH  23  27
ATOM     27  C   UNL     1     118.429  95.969 120.288  1.00  0.00     0.180 A 
ATOM     28  N   UNL     1     118.654  95.123 121.311  1.00  0.00    -0.109 NA
ATOM     29  N   UNL     1     117.432  95.503 119.514  1.00  0.00    -0.239 N 
ATOM     30  N   UNL     1     117.791  94.131 121.133  1.00  0.00    -0.024 NA
ATOM     31  N   UNL     1     117.056  94.360 120.055  1.00  0.00    -0.048 NA
ATOM     32  H   UNL     1     117.044  95.948 118.671  1.00  0.00     0.194 HD
ENDBRANCH  23  27
ENDBRANCH   4  21
TORSDOF 4
ENDMDL
MODEL 11
REMARK VINA RESULT:      -7.9     10.384     13.276
REMARK SMILES Cc1nc(C)c2c(n1)N(Cc1ccc(-c3ccccc3-c3nnn[nH]3)cc1)C(=O)CC2
REMARK SMILES IDX 11 1 12 2 13 3 14 4 26 5 27 6 10 7 9 8 2 9 3 10 8 11 4 12
REMARK SMILES IDX 7 13 6 14 31 15 28 16 30 17 29 18 1 19 5 20 15 21 16 22
REMARK SMILES IDX 20 23 17 24 19 25 18 26 21 27 22 28 25 29 23 30 24 31
REMARK H PARENT 25 32
ROOT
ATOM      1  C   UNL     1     104.300  96.544 117.283  1.00  0.00    -0.028 A 
ATOM      2  C   UNL     1     103.964  95.232 116.908  1.00  0.00     0.006 A 
ATOM      3  C   UNL     1     104.497  94.673 115.743  1.00  0.00     0.009 A 
ATOM      4  C   UNL     1     105.367  95.418 114.933  1.00  0.00    -0.018 A 
ATOM      5  C   UNL     1     105.723  96.720 115.322  1.00  0.00     0.009 A 
ATOM      6  C   UNL     1     105.191  97.279 116.486  1.00  0.00     0.006 A 
ENDROOT
BRANCH   1   7
ATOM      7  C   UNL     1     103.681  97.173 118.503  1.00  0.00     0.162 C 
BRANCH   7   8
ATOM      8  N   UNL     1     103.486  98.616 118.290  1.00  0.00    -0.292 N 
ATOM      9  C   UNL     1     106.287 100.003 120.246  1.00  0.00     0.127 A 
ATOM     10  N   UNL     1     106.211 101.326 119.958  1.00  0.00    -0.238 NA
ATOM     11  N   UNL     1     105.395  99.141 119.698  1.00  0.00    -0.216 NA
ATOM     12  C   UNL     1     105.265 101.817 119.113  1.00  0.00     0.046 A 
ATOM     13  C   UNL     1     104.417  99.566 118.854  1.00  0.00     0.142 A 
ATOM     14  C   UNL     1     104.313 100.939 118.550  1.00  0.00     0.017 A 
ATOM     15  C   UNL     1     103.271 101.404 117.556  1.00  0.00     0.051 C 
ATOM     16  C   UNL     1     102.315  99.106 117.608  1.00  0.00     0.228 C 
ATOM     17  C   UNL     1     101.992 100.569 117.645  1.00  0.00     0.105 C 
ATOM     18  O   UNL     1     101.526  98.313 117.026  1.00  0.00    -0.274 OA
ATOM     19  C   UNL     1     107.311  99.504 121.208  1.00  0.00     0.090 C 
ATOM     20  C   UNL     1     105.262 103.290 118.823  1.00  0.00     0.067 C 
ENDBRANCH   7   8
ENDBRANCH   1   7
BRANCH   4  21
ATOM     21  C   UNL     1     105.910  94.834 113.686  1.00  0.00    -0.007 A 
ATOM     22  C   UNL     1     107.068  94.041 113.770  1.00  0.00     0.009 A 
ATOM     23  C   UNL     1     105.341  95.101 112.412  1.00  0.00     0.028 A 
ATOM     24  C   UNL     1     107.675  93.545 112.615  1.00  0.00     0.001 A 
ATOM     25  C   UNL     1     105.981  94.612 111.260  1.00  0.00     0.013 A 
ATOM     26  C   UNL     1     107.138  93.837 111.363  1.00  0.00     0.001 A 
BRANCH  23  27
ATOM     27  C   UNL     1     104.074  95.852 112.244  1.00  0.00     0.180 A 
ATOM     28  N   UNL     1     102.849  95.311 112.380  1.00  0.00    -0.109 NA
ATOM     29  N   UNL     1     103.973  97.172 112.007  1.00  0.00    -0.239 N 
ATOM     30  N   UNL     1     102.006  96.320 112.203  1.00  0.00    -0.024 NA
ATOM     31  N   UNL     1     102.680  97.439 111.981  1.00  0.00    -0.048 NA
ATOM     32  H   UNL     1     104.746  97.838 111.871  1.00  0.00     0.194 HD
ENDBRANCH  23  27
ENDBRANCH   4  21
TORSDOF 4
ENDMDL
MODEL 12
REMARK VINA RESULT:      -7.9      1.922      2.255
REMARK SMILES Cc1nc(C)c2c(n1)N(Cc1ccc(-c3ccccc3-c3nnn[nH]3)cc1)C(=O)CC2
REMARK SMILES IDX 11 1 12 2 13 3 14 4 26 5 27 6 10 7 9 8 2 9 3 10 8 11 4 12
REMARK SMILES IDX 7 13 6 14 31 15 28 16 30 17 29 18 1 19 5 20 15 21 16 22
REMARK SMILES IDX 20 23 17 24 19 25 18 26 21 27 22 28 25 29 23 30 24 31
REMARK H PARENT 25 32
ROOT
ATOM      1  C   UNL     1     115.878  97.137 123.294  1.00  0.00    -0.028 A 
ATOM      2  C   UNL     1     116.915  98.083 123.328  1.00  0.00     0.006 A 
ATOM      3  C   UNL     1     118.071  97.890 122.568  1.00  0.00     0.009 A 
ATOM      4  C   UNL     1     118.211  96.746 121.768  1.00  0.00    -0.018 A 
ATOM      5  C   UNL     1     117.163  95.813 121.714  1.00  0.00     0.009 A 
ATOM      6  C   UNL     1     116.007  96.005 122.474  1.00  0.00     0.006 A 
ENDROOT
BRANCH   1   7
ATOM      7  C   UNL     1     114.656  97.308 124.158  1.00  0.00     0.162 C 
BRANCH   7   8
ATOM      8  N   UNL     1     113.877  98.475 123.714  1.00  0.00    -0.292 N 
ATOM      9  C   UNL     1     111.702  96.939 121.163  1.00  0.00     0.127 A 
ATOM     10  N   UNL     1     110.880  97.966 120.831  1.00  0.00    -0.238 NA
ATOM     11  N   UNL     1     112.667  97.124 122.096  1.00  0.00    -0.216 NA
ATOM     12  C   UNL     1     110.986  99.183 121.426  1.00  0.00     0.046 A 
ATOM     13  C   UNL     1     112.836  98.319 122.723  1.00  0.00     0.142 A 
ATOM     14  C   UNL     1     111.999  99.402 122.386  1.00  0.00     0.017 A 
ATOM     15  C   UNL     1     112.139 100.711 123.132  1.00  0.00     0.051 C 
ATOM     16  C   UNL     1     114.204  99.798 124.180  1.00  0.00     0.228 C 
ATOM     17  C   UNL     1     113.593 100.993 123.513  1.00  0.00     0.105 C 
ATOM     18  O   UNL     1     115.042  99.968 125.107  1.00  0.00    -0.274 OA
ATOM     19  C   UNL     1     111.584  95.629 120.460  1.00  0.00     0.090 C 
ATOM     20  C   UNL     1     110.022 100.261 121.025  1.00  0.00     0.067 C 
ENDBRANCH   7   8
ENDBRANCH   1   7
BRANCH   4  21
ATOM     21  C   UNL     1     119.448  96.529 120.984  1.00  0.00    -0.007 A 
ATOM     22  C   UNL     1     120.463  95.734 121.547  1.00  0.00     0.009 A 
ATOM     23  C   UNL     1     119.666  97.146 119.723  1.00  0.00     0.028 A 
ATOM     24  C   UNL     1     121.685  95.576 120.893  1.00  0.00     0.001 A 
ATOM     25  C   UNL     1     120.914  96.994 119.093  1.00  0.00     0.013 A 
ATOM     26  C   UNL     1     121.914  96.211 119.674  1.00  0.00     0.001 A 
BRANCH  23  27
ATOM     27  C   UNL     1     118.618  97.925 119.023  1.00  0.00     0.180 A 
ATOM     28  N   UNL     1     118.486  99.263 119.104  1.00  0.00    -0.109 NA
ATOM     29  N   UNL     1     117.710  97.423 118.167  1.00  0.00    -0.239 N 
ATOM     30  N   UNL     1     117.475  99.558 118.298  1.00  0.00    -0.024 NA
ATOM     31  N   UNL     1     117.009  98.454 117.733  1.00  0.00    -0.048 NA
ATOM     32  H   UNL     1     117.587  96.435 117.904  1.00  0.00     0.194 HD
ENDBRANCH  23  27
ENDBRANCH   4  21
TORSDOF 4
ENDMDL
MODEL 13
REMARK VINA RESULT:      -7.9      2.316      3.152
REMARK SMILES Cc1nc(C)c2c(n1)N(Cc1ccc(-c3ccccc3-c3nnn[nH]3)cc1)C(=O)CC2
REMARK SMILES IDX 11 1 12 2 13 3 14 4 26 5 27 6 10 7 9 8 2 9 3 10 8 11 4 12
REMARK SMILES IDX 7 13 6 14 31 15 28 16 30 17 29 18 1 19 5 20 15 21 16 22
REMARK SMILES IDX 20 23 17 24 19 25 18 26 21 27 22 28 25 29 23 30 24 31
REMARK H PARENT 25 32
ROOT
ATOM      1  C   UNL     1     116.610  97.484 123.782  1.00  0.00    -0.028 A 
ATOM      2  C   UNL     1     117.686  98.378 123.651  1.00  0.00     0.006 A 
ATOM      3  C   UNL     1     118.730  98.100 122.765  1.00  0.00     0.009 A 
ATOM      4  C   UNL     1     118.718  96.923 122.003  1.00  0.00    -0.018 A 
ATOM      5  C   UNL     1     117.630  96.042 122.115  1.00  0.00     0.009 A 
ATOM      6  C   UNL     1     116.587  96.319 123.000  1.00  0.00     0.006 A 
ENDROOT
BRANCH   1   7
ATOM      7  C   UNL     1     115.513  97.748 124.779  1.00  0.00     0.162 C 
BRANCH   7   8
ATOM      8  N   UNL     1     114.197  97.664 124.125  1.00  0.00    -0.292 N 
ATOM      9  C   UNL     1     114.032 100.947 122.454  1.00  0.00     0.127 A 
ATOM     10  N   UNL     1     112.887 100.844 121.733  1.00  0.00    -0.238 NA
ATOM     11  N   UNL     1     114.438  99.908 123.224  1.00  0.00    -0.216 NA
ATOM     12  C   UNL     1     112.136  99.711 121.747  1.00  0.00     0.046 A 
ATOM     13  C   UNL     1     113.729  98.750 123.293  1.00  0.00     0.142 A 
ATOM     14  C   UNL     1     112.531  98.626 122.560  1.00  0.00     0.017 A 
ATOM     15  C   UNL     1     111.778  97.313 122.580  1.00  0.00     0.051 C 
ATOM     16  C   UNL     1     113.317  96.554 124.384  1.00  0.00     0.228 C 
ATOM     17  C   UNL     1     111.887  96.619 123.939  1.00  0.00     0.105 C 
ATOM     18  O   UNL     1     113.718  95.547 125.030  1.00  0.00    -0.274 OA
ATOM     19  C   UNL     1     114.809 102.219 122.447  1.00  0.00     0.090 C 
ATOM     20  C   UNL     1     110.897  99.665 120.902  1.00  0.00     0.067 C 
ENDBRANCH   7   8
ENDBRANCH   1   7
BRANCH   4  21
ATOM     21  C   UNL     1     119.839  96.617 121.085  1.00  0.00    -0.007 A 
ATOM     22  C   UNL     1     120.873  95.784 121.550  1.00  0.00     0.009 A 
ATOM     23  C   UNL     1     119.934  97.185 119.787  1.00  0.00     0.028 A 
ATOM     24  C   UNL     1     121.998  95.541 120.761  1.00  0.00     0.001 A 
ATOM     25  C   UNL     1     121.087  96.946 119.018  1.00  0.00     0.013 A 
ATOM     26  C   UNL     1     122.109  96.127 119.502  1.00  0.00     0.001 A 
BRANCH  23  27
ATOM     27  C   UNL     1     118.849  97.999 119.189  1.00  0.00     0.180 A 
ATOM     28  N   UNL     1     118.836  99.345 119.168  1.00  0.00    -0.109 NA
ATOM     29  N   UNL     1     117.779  97.516 118.533  1.00  0.00    -0.239 N 
ATOM     30  N   UNL     1     117.734  99.668 118.505  1.00  0.00    -0.024 NA
ATOM     31  N   UNL     1     117.099  98.571 118.122  1.00  0.00    -0.048 NA
ATOM     32  H   UNL     1     117.538  96.527 118.384  1.00  0.00     0.194 HD
ENDBRANCH  23  27
ENDBRANCH   4  21
TORSDOF 4
ENDMDL
MODEL 14
REMARK VINA RESULT:      -7.9     11.117     13.051
REMARK SMILES Cc1nc(C)c2c(n1)N(Cc1ccc(-c3ccccc3-c3nnn[nH]3)cc1)C(=O)CC2
REMARK SMILES IDX 11 1 12 2 13 3 14 4 26 5 27 6 10 7 9 8 2 9 3 10 8 11 4 12
REMARK SMILES IDX 7 13 6 14 31 15 28 16 30 17 29 18 1 19 5 20 15 21 16 22
REMARK SMILES IDX 20 23 17 24 19 25 18 26 21 27 22 28 25 29 23 30 24 31
REMARK H PARENT 25 32
ROOT
ATOM      1  C   UNL     1     105.243  94.026 117.920  1.00  0.00    -0.028 A 
ATOM      2  C   UNL     1     104.213  94.630 117.181  1.00  0.00     0.006 A 
ATOM      3  C   UNL     1     104.398  94.934 115.830  1.00  0.00     0.009 A 
ATOM      4  C   UNL     1     105.618  94.646 115.199  1.00  0.00    -0.018 A 
ATOM      5  C   UNL     1     106.639  94.019 115.931  1.00  0.00     0.009 A 
ATOM      6  C   UNL     1     106.454  93.714 117.281  1.00  0.00     0.006 A 
ENDROOT
BRANCH   1   7
ATOM      7  C   UNL     1     105.072  93.751 119.390  1.00  0.00     0.162 C 
BRANCH   7   8
ATOM      8  N   UNL     1     103.715  94.122 119.824  1.00  0.00    -0.292 N 
ATOM      9  C   UNL     1     104.293  97.531 121.106  1.00  0.00     0.127 A 
ATOM     10  N   UNL     1     103.033  97.948 121.390  1.00  0.00    -0.238 NA
ATOM     11  N   UNL     1     104.494  96.289 120.602  1.00  0.00    -0.216 NA
ATOM     12  C   UNL     1     101.953  97.154 121.165  1.00  0.00     0.046 A 
ATOM     13  C   UNL     1     103.460  95.439 120.363  1.00  0.00     0.142 A 
ATOM     14  C   UNL     1     102.143  95.848 120.661  1.00  0.00     0.017 A 
ATOM     15  C   UNL     1     100.986  94.931 120.331  1.00  0.00     0.051 C 
ATOM     16  C   UNL     1     102.649  93.153 119.815  1.00  0.00     0.228 C 
ATOM     17  C   UNL     1     101.360  93.459 120.513  1.00  0.00     0.105 C 
ATOM     18  O   UNL     1     102.806  92.025 119.272  1.00  0.00    -0.274 OA
ATOM     19  C   UNL     1     105.458  98.413 121.403  1.00  0.00     0.090 C 
ATOM     20  C   UNL     1     100.590  97.697 121.480  1.00  0.00     0.067 C 
ENDBRANCH   7   8
ENDBRANCH   1   7
BRANCH   4  21
ATOM     21  C   UNL     1     105.823  94.994 113.775  1.00  0.00    -0.007 A 
ATOM     22  C   UNL     1     106.335  96.268 113.467  1.00  0.00     0.009 A 
ATOM     23  C   UNL     1     105.459  94.117 112.719  1.00  0.00     0.028 A 
ATOM     24  C   UNL     1     106.458  96.682 112.141  1.00  0.00     0.001 A 
ATOM     25  C   UNL     1     105.568  94.564 111.390  1.00  0.00     0.013 A 
ATOM     26  C   UNL     1     106.067  95.836 111.105  1.00  0.00     0.001 A 
BRANCH  23  27
ATOM     27  C   UNL     1     104.995  92.730 112.956  1.00  0.00     0.180 A 
ATOM     28  N   UNL     1     103.739  92.402 113.314  1.00  0.00    -0.109 NA
ATOM     29  N   UNL     1     105.731  91.618 112.782  1.00  0.00    -0.239 N 
ATOM     30  N   UNL     1     103.733  91.077 113.371  1.00  0.00    -0.024 NA
ATOM     31  N   UNL     1     104.928  90.605 113.049  1.00  0.00    -0.048 NA
ATOM     32  H   UNL     1     106.720  91.568 112.499  1.00  0.00     0.194 HD
ENDBRANCH  23  27
ENDBRANCH   4  21
TORSDOF 4
ENDMDL
MODEL 15
REMARK VINA RESULT:      -7.7      4.347      7.948
REMARK SMILES Cc1nc(C)c2c(n1)N(Cc1ccc(-c3ccccc3-c3nnn[nH]3)cc1)C(=O)CC2
REMARK SMILES IDX 11 1 12 2 13 3 14 4 26 5 27 6 10 7 9 8 2 9 3 10 8 11 4 12
REMARK SMILES IDX 7 13 6 14 31 15 28 16 30 17 29 18 1 19 5 20 15 21 16 22
REMARK SMILES IDX 20 23 17 24 19 25 18 26 21 27 22 28 25 29 23 30 24 31
REMARK H PARENT 25 32
ROOT
ATOM      1  C   UNL     1     116.496 100.222 121.736  1.00  0.00    -0.028 A 
ATOM      2  C   UNL     1     115.628  99.687 120.771  1.00  0.00     0.006 A 
ATOM      3  C   UNL     1     114.363 100.247 120.571  1.00  0.00     0.009 A 
ATOM      4  C   UNL     1     113.946 101.345 121.338  1.00  0.00    -0.018 A 
ATOM      5  C   UNL     1     114.824 101.896 122.285  1.00  0.00     0.009 A 
ATOM      6  C   UNL     1     116.088 101.337 122.484  1.00  0.00     0.006 A 
ENDROOT
BRANCH   1   7
ATOM      7  C   UNL     1     117.836  99.585 121.998  1.00  0.00     0.162 C 
BRANCH   7   8
ATOM      8  N   UNL     1     117.992  98.371 121.181  1.00  0.00    -0.292 N 
ATOM      9  C   UNL     1     116.351  95.861 123.327  1.00  0.00     0.127 A 
ATOM     10  N   UNL     1     116.362  94.758 122.538  1.00  0.00    -0.238 NA
ATOM     11  N   UNL     1     116.885  97.021 122.872  1.00  0.00    -0.216 NA
ATOM     12  C   UNL     1     116.885  94.785 121.284  1.00  0.00     0.046 A 
ATOM     13  C   UNL     1     117.434  97.116 121.631  1.00  0.00     0.142 A 
ATOM     14  C   UNL     1     117.465  95.977 120.798  1.00  0.00     0.017 A 
ATOM     15  C   UNL     1     118.011  96.099 119.392  1.00  0.00     0.051 C 
ATOM     16  C   UNL     1     118.786  98.390 119.979  1.00  0.00     0.228 C 
ATOM     17  C   UNL     1     119.165  97.101 119.317  1.00  0.00     0.105 C 
ATOM     18  O   UNL     1     119.216  99.478 119.506  1.00  0.00    -0.274 OA
ATOM     19  C   UNL     1     115.807  95.785 124.713  1.00  0.00     0.090 C 
ATOM     20  C   UNL     1     116.836  93.530 120.462  1.00  0.00     0.067 C 
ENDBRANCH   7   8
ENDBRANCH   1   7
BRANCH   4  21
ATOM     21  C   UNL     1     112.596 101.920 121.145  1.00  0.00    -0.007 A 
ATOM     22  C   UNL     1     111.582 101.561 122.052  1.00  0.00     0.009 A 
ATOM     23  C   UNL     1     112.278 102.763 120.046  1.00  0.00     0.028 A 
ATOM     24  C   UNL     1     110.270 101.998 121.861  1.00  0.00     0.001 A 
ATOM     25  C   UNL     1     110.946 103.172 119.859  1.00  0.00     0.013 A 
ATOM     26  C   UNL     1     109.952 102.794 120.762  1.00  0.00     0.001 A 
BRANCH  23  27
ATOM     27  C   UNL     1     113.304 103.259 119.098  1.00  0.00     0.180 A 
ATOM     28  N   UNL     1     114.237 104.180 119.404  1.00  0.00    -0.109 NA
ATOM     29  N   UNL     1     113.488 102.815 117.841  1.00  0.00    -0.239 N 
ATOM     30  N   UNL     1     114.975 104.298 118.309  1.00  0.00    -0.024 NA
ATOM     31  N   UNL     1     114.528 103.477 117.370  1.00  0.00    -0.048 NA
ATOM     32  H   UNL     1     112.931 102.104 117.348  1.00  0.00     0.194 HD
ENDBRANCH  23  27
ENDBRANCH   4  21
TORSDOF 4
ENDMDL
