MODEL 1
REMARK VINA RESULT:      -8.6      0.000      0.000
REMARK SMILES O[C@@H]1[C@H]2O[C@H]2c2c(ccc3c4ccccc4c4ccccc4c23)[C@@H]1O
REMARK SMILES IDX 24 1 7 2 8 3 9 4 10 5 11 6 12 7 13 8 14 9 15 10 16 11 17 12
REMARK SMILES IDX 18 13 19 14 20 15 21 16 22 17 23 18 6 19 5 20 4 21 3 22 2 23
REMARK SMILES IDX 25 24 1 26
REMARK H PARENT 25 25 1 27
ROOT
ATOM      1  C   UNL     1     106.386  93.542 111.608  1.00  0.00     0.176 C 
ATOM      2  C   UNL     1     105.671  93.073 112.848  1.00  0.00    -0.010 A 
ATOM      3  C   UNL     1     104.784  91.999 112.777  1.00  0.00     0.007 A 
ATOM      4  C   UNL     1     103.998  91.666 113.874  1.00  0.00     0.010 A 
ATOM      5  C   UNL     1     104.160  92.326 115.115  1.00  0.00    -0.009 A 
ATOM      6  C   UNL     1     103.270  92.125 116.208  1.00  0.00    -0.010 A 
ATOM      7  C   UNL     1     102.043  91.428 116.048  1.00  0.00     0.009 A 
ATOM      8  C   UNL     1     101.148  91.292 117.104  1.00  0.00     0.001 A 
ATOM      9  C   UNL     1     101.431  91.863 118.335  1.00  0.00     0.001 A 
ATOM     10  C   UNL     1     102.618  92.562 118.526  1.00  0.00     0.009 A 
ATOM     11  C   UNL     1     103.570  92.697 117.481  1.00  0.00    -0.010 A 
ATOM     12  C   UNL     1     104.824  93.342 117.680  1.00  0.00    -0.010 A 
ATOM     13  C   UNL     1     105.282  93.735 118.967  1.00  0.00     0.009 A 
ATOM     14  C   UNL     1     106.572  94.226 119.154  1.00  0.00     0.001 A 
ATOM     15  C   UNL     1     107.453  94.292 118.085  1.00  0.00     0.001 A 
ATOM     16  C   UNL     1     107.027  93.928 116.812  1.00  0.00     0.009 A 
ATOM     17  C   UNL     1     105.688  93.549 116.568  1.00  0.00    -0.010 A 
ATOM     18  C   UNL     1     105.251  93.224 115.257  1.00  0.00    -0.004 A 
ATOM     19  C   UNL     1     105.870  93.740 114.075  1.00  0.00    -0.002 A 
ATOM     20  C   UNL     1     106.491  95.134 114.040  1.00  0.00     0.181 C 
ATOM     21  O   UNL     1     105.544  96.071 113.580  1.00  0.00    -0.362 OA
ATOM     22  C   UNL     1     106.635  95.819 112.722  1.00  0.00     0.184 C 
ATOM     23  C   UNL     1     106.189  95.062 111.457  1.00  0.00     0.179 C 
ENDROOT
BRANCH   1  24
ATOM     24  O   UNL     1     107.750  93.225 111.728  1.00  0.00    -0.386 OA
ATOM     25  H   UNL     1     107.905  92.306 111.391  1.00  0.00     0.211 HD
ENDBRANCH   1  24
BRANCH  23  26
ATOM     26  O   UNL     1     106.865  95.543 110.323  1.00  0.00    -0.387 OA
ATOM     27  H   UNL     1     106.792  96.530 110.289  1.00  0.00     0.211 HD
ENDBRANCH  23  26
TORSDOF 2
ENDMDL
MODEL 2
REMARK VINA RESULT:      -8.1     12.918     15.536
REMARK SMILES O[C@@H]1[C@H]2O[C@H]2c2c(ccc3c4ccccc4c4ccccc4c23)[C@@H]1O
REMARK SMILES IDX 24 1 7 2 8 3 9 4 10 5 11 6 12 7 13 8 14 9 15 10 16 11 17 12
REMARK SMILES IDX 18 13 19 14 20 15 21 16 22 17 23 18 6 19 5 20 4 21 3 22 2 23
REMARK SMILES IDX 25 24 1 26
REMARK H PARENT 25 25 1 27
ROOT
ATOM      1  C   UNL     1     121.547  97.592 120.160  1.00  0.00     0.176 C 
ATOM      2  C   UNL     1     120.143  97.771 120.678  1.00  0.00    -0.010 A 
ATOM      3  C   UNL     1     119.607  99.051 120.811  1.00  0.00     0.007 A 
ATOM      4  C   UNL     1     118.381  99.236 121.441  1.00  0.00     0.010 A 
ATOM      5  C   UNL     1     117.600  98.131 121.853  1.00  0.00    -0.009 A 
ATOM      6  C   UNL     1     116.422  98.281 122.640  1.00  0.00    -0.010 A 
ATOM      7  C   UNL     1     116.086  99.520 123.246  1.00  0.00     0.009 A 
ATOM      8  C   UNL     1     114.970  99.642 124.067  1.00  0.00     0.001 A 
ATOM      9  C   UNL     1     114.174  98.539 124.329  1.00  0.00     0.001 A 
ATOM     10  C   UNL     1     114.478  97.306 123.761  1.00  0.00     0.009 A 
ATOM     11  C   UNL     1     115.591  97.147 122.894  1.00  0.00    -0.010 A 
ATOM     12  C   UNL     1     115.873  95.912 122.243  1.00  0.00    -0.010 A 
ATOM     13  C   UNL     1     114.971  94.814 122.273  1.00  0.00     0.009 A 
ATOM     14  C   UNL     1     115.200  93.674 121.506  1.00  0.00     0.001 A 
ATOM     15  C   UNL     1     116.295  93.614 120.657  1.00  0.00     0.001 A 
ATOM     16  C   UNL     1     117.201  94.668 120.619  1.00  0.00     0.009 A 
ATOM     17  C   UNL     1     117.066  95.782 121.479  1.00  0.00    -0.010 A 
ATOM     18  C   UNL     1     118.022  96.831 121.466  1.00  0.00    -0.004 A 
ATOM     19  C   UNL     1     119.381  96.646 121.061  1.00  0.00    -0.002 A 
ATOM     20  C   UNL     1     120.119  95.332 121.307  1.00  0.00     0.181 C 
ATOM     21  O   UNL     1     120.815  95.392 122.530  1.00  0.00    -0.362 OA
ATOM     22  C   UNL     1     121.609  95.349 121.366  1.00  0.00     0.184 C 
ATOM     23  C   UNL     1     122.330  96.690 121.130  1.00  0.00     0.179 C 
ENDROOT
BRANCH   1  24
ATOM     24  O   UNL     1     121.483  97.014 118.880  1.00  0.00    -0.386 OA
ATOM     25  H   UNL     1     120.614  97.238 118.461  1.00  0.00     0.211 HD
ENDBRANCH   1  24
BRANCH  23  26
ATOM     26  O   UNL     1     123.640  96.478 120.667  1.00  0.00    -0.387 OA
ATOM     27  H   UNL     1     124.071  95.767 121.207  1.00  0.00     0.211 HD
ENDBRANCH  23  26
TORSDOF 2
ENDMDL
MODEL 3
REMARK VINA RESULT:      -8.1     12.385     15.117
REMARK SMILES O[C@@H]1[C@H]2O[C@H]2c2c(ccc3c4ccccc4c4ccccc4c23)[C@@H]1O
REMARK SMILES IDX 24 1 7 2 8 3 9 4 10 5 11 6 12 7 13 8 14 9 15 10 16 11 17 12
REMARK SMILES IDX 18 13 19 14 20 15 21 16 22 17 23 18 6 19 5 20 4 21 3 22 2 23
REMARK SMILES IDX 25 24 1 26
REMARK H PARENT 25 25 1 27
ROOT
ATOM      1  C   UNL     1     114.433  93.927 122.761  1.00  0.00     0.176 C 
ATOM      2  C   UNL     1     115.475  94.735 122.030  1.00  0.00    -0.010 A 
ATOM      3  C   UNL     1     116.285  94.125 121.074  1.00  0.00     0.007 A 
ATOM      4  C   UNL     1     117.354  94.817 120.516  1.00  0.00     0.010 A 
ATOM      5  C   UNL     1     117.573  96.182 120.814  1.00  0.00    -0.009 A 
ATOM      6  C   UNL     1     118.743  96.876 120.392  1.00  0.00    -0.010 A 
ATOM      7  C   UNL     1     119.857  96.189 119.844  1.00  0.00     0.009 A 
ATOM      8  C   UNL     1     121.022  96.866 119.495  1.00  0.00     0.001 A 
ATOM      9  C   UNL     1     121.121  98.233 119.701  1.00  0.00     0.001 A 
ATOM     10  C   UNL     1     120.053  98.938 120.245  1.00  0.00     0.009 A 
ATOM     11  C   UNL     1     118.838  98.288 120.587  1.00  0.00    -0.010 A 
ATOM     12  C   UNL     1     117.708  99.005 121.074  1.00  0.00    -0.010 A 
ATOM     13  C   UNL     1     117.654 100.425 121.082  1.00  0.00     0.009 A 
ATOM     14  C   UNL     1     116.484 101.100 121.421  1.00  0.00     0.001 A 
ATOM     15  C   UNL     1     115.328 100.388 121.708  1.00  0.00     0.001 A 
ATOM     16  C   UNL     1     115.356  98.998 121.721  1.00  0.00     0.009 A 
ATOM     17  C   UNL     1     116.558  98.287 121.509  1.00  0.00    -0.010 A 
ATOM     18  C   UNL     1     116.586  96.869 121.569  1.00  0.00    -0.004 A 
ATOM     19  C   UNL     1     115.654  96.100 122.336  1.00  0.00    -0.002 A 
ATOM     20  C   UNL     1     115.072  96.623 123.647  1.00  0.00     0.181 C 
ATOM     21  O   UNL     1     115.855  96.183 124.731  1.00  0.00    -0.362 OA
ATOM     22  C   UNL     1     114.557  95.640 124.643  1.00  0.00     0.184 C 
ATOM     23  C   UNL     1     114.600  94.144 124.276  1.00  0.00     0.179 C 
ENDROOT
BRANCH   1  24
ATOM     24  O   UNL     1     113.160  94.343 122.333  1.00  0.00    -0.386 OA
ATOM     25  H   UNL     1     113.206  95.285 122.032  1.00  0.00     0.211 HD
ENDBRANCH   1  24
BRANCH  23  26
ATOM     26  O   UNL     1     113.627  93.426 124.993  1.00  0.00    -0.387 OA
ATOM     27  H   UNL     1     113.996  93.157 125.872  1.00  0.00     0.211 HD
ENDBRANCH  23  26
TORSDOF 2
ENDMDL
MODEL 4
REMARK VINA RESULT:      -7.8      3.562      6.567
REMARK SMILES O[C@@H]1[C@H]2O[C@H]2c2c(ccc3c4ccccc4c4ccccc4c23)[C@@H]1O
REMARK SMILES IDX 24 1 7 2 8 3 9 4 10 5 11 6 12 7 13 8 14 9 15 10 16 11 17 12
REMARK SMILES IDX 18 13 19 14 20 15 21 16 22 17 23 18 6 19 5 20 4 21 3 22 2 23
REMARK SMILES IDX 25 24 1 26
REMARK H PARENT 25 25 1 27
ROOT
ATOM      1  C   UNL     1     105.685  95.429 119.233  1.00  0.00     0.176 C 
ATOM      2  C   UNL     1     105.711  95.092 117.764  1.00  0.00    -0.010 A 
ATOM      3  C   UNL     1     106.454  94.002 117.312  1.00  0.00     0.007 A 
ATOM      4  C   UNL     1     106.618  93.782 115.949  1.00  0.00     0.010 A 
ATOM      5  C   UNL     1     105.944  94.582 114.996  1.00  0.00    -0.009 A 
ATOM      6  C   UNL     1     106.212  94.491 113.600  1.00  0.00    -0.010 A 
ATOM      7  C   UNL     1     107.322  93.760 113.101  1.00  0.00     0.009 A 
ATOM      8  C   UNL     1     107.615  93.730 111.742  1.00  0.00     0.001 A 
ATOM      9  C   UNL     1     106.833  94.442 110.846  1.00  0.00     0.001 A 
ATOM     10  C   UNL     1     105.743  95.177 111.298  1.00  0.00     0.009 A 
ATOM     11  C   UNL     1     105.395  95.209 112.674  1.00  0.00    -0.010 A 
ATOM     12  C   UNL     1     104.238  95.894 113.146  1.00  0.00    -0.010 A 
ATOM     13  C   UNL     1     103.264  96.437 112.265  1.00  0.00     0.009 A 
ATOM     14  C   UNL     1     102.072  96.968 112.750  1.00  0.00     0.001 A 
ATOM     15  C   UNL     1     101.792  96.927 114.108  1.00  0.00     0.001 A 
ATOM     16  C   UNL     1     102.734  96.414 114.994  1.00  0.00     0.009 A 
ATOM     17  C   UNL     1     104.005  95.987 114.547  1.00  0.00    -0.010 A 
ATOM     18  C   UNL     1     104.976  95.508 115.464  1.00  0.00    -0.004 A 
ATOM     19  C   UNL     1     105.011  95.897 116.840  1.00  0.00    -0.002 A 
ATOM     20  C   UNL     1     104.574  97.288 117.291  1.00  0.00     0.181 C 
ATOM     21  O   UNL     1     105.687  98.150 117.339  1.00  0.00    -0.362 OA
ATOM     22  C   UNL     1     105.103  97.821 118.580  1.00  0.00     0.184 C 
ATOM     23  C   UNL     1     106.032  96.918 119.413  1.00  0.00     0.179 C 
ENDROOT
BRANCH   1  24
ATOM     24  O   UNL     1     104.403  95.150 119.735  1.00  0.00    -0.386 OA
ATOM     25  H   UNL     1     104.429  94.309 120.257  1.00  0.00     0.211 HD
ENDBRANCH   1  24
BRANCH  23  26
ATOM     26  O   UNL     1     105.993  97.278 120.771  1.00  0.00    -0.387 OA
ATOM     27  H   UNL     1     106.717  97.926 120.962  1.00  0.00     0.211 HD
ENDBRANCH  23  26
TORSDOF 2
ENDMDL
MODEL 5
REMARK VINA RESULT:      -7.6      0.995      1.002
REMARK SMILES O[C@@H]1[C@H]2O[C@H]2c2c(ccc3c4ccccc4c4ccccc4c23)[C@@H]1O
REMARK SMILES IDX 24 1 7 2 8 3 9 4 10 5 11 6 12 7 13 8 14 9 15 10 16 11 17 12
REMARK SMILES IDX 18 13 19 14 20 15 21 16 22 17 23 18 6 19 5 20 4 21 3 22 2 23
REMARK SMILES IDX 25 24 1 26
REMARK H PARENT 25 25 1 27
ROOT
ATOM      1  C   UNL     1     105.799  93.719 111.573  1.00  0.00     0.176 C 
ATOM      2  C   UNL     1     105.031  93.494 112.851  1.00  0.00    -0.010 A 
ATOM      3  C   UNL     1     103.857  92.742 112.835  1.00  0.00     0.007 A 
ATOM      4  C   UNL     1     103.057  92.668 113.970  1.00  0.00     0.010 A 
ATOM      5  C   UNL     1     103.469  93.251 115.191  1.00  0.00    -0.009 A 
ATOM      6  C   UNL     1     102.610  93.334 116.324  1.00  0.00    -0.010 A 
ATOM      7  C   UNL     1     101.223  93.044 116.228  1.00  0.00     0.009 A 
ATOM      8  C   UNL     1     100.378  93.192 117.323  1.00  0.00     0.001 A 
ATOM      9  C   UNL     1     100.877  93.652 118.531  1.00  0.00     0.001 A 
ATOM     10  C   UNL     1     102.228  93.956 118.659  1.00  0.00     0.009 A 
ATOM     11  C   UNL     1     103.128  93.791 117.574  1.00  0.00    -0.010 A 
ATOM     12  C   UNL     1     104.527  94.024 117.709  1.00  0.00    -0.010 A 
ATOM     13  C   UNL     1     105.140  94.262 118.968  1.00  0.00     0.009 A 
ATOM     14  C   UNL     1     106.525  94.337 119.092  1.00  0.00     0.001 A 
ATOM     15  C   UNL     1     107.335  94.128 117.986  1.00  0.00     0.001 A 
ATOM     16  C   UNL     1     106.762  93.907 116.739  1.00  0.00     0.009 A 
ATOM     17  C   UNL     1     105.361  93.954 116.557  1.00  0.00    -0.010 A 
ATOM     18  C   UNL     1     104.786  93.773 115.272  1.00  0.00    -0.004 A 
ATOM     19  C   UNL     1     105.479  94.072 114.057  1.00  0.00    -0.002 A 
ATOM     20  C   UNL     1     106.493  95.211 113.972  1.00  0.00     0.181 C 
ATOM     21  O   UNL     1     105.857  96.390 113.536  1.00  0.00    -0.362 OA
ATOM     22  C   UNL     1     106.779  95.815 112.638  1.00  0.00     0.184 C 
ATOM     23  C   UNL     1     106.067  95.225 111.406  1.00  0.00     0.179 C 
ENDROOT
BRANCH   1  24
ATOM     24  O   UNL     1     107.004  93.001 111.641  1.00  0.00    -0.386 OA
ATOM     25  H   UNL     1     107.635  93.349 110.962  1.00  0.00     0.211 HD
ENDBRANCH   1  24
BRANCH  23  26
ATOM     26  O   UNL     1     106.805  95.474 110.236  1.00  0.00    -0.387 OA
ATOM     27  H   UNL     1     106.186  95.579 109.470  1.00  0.00     0.211 HD
ENDBRANCH  23  26
TORSDOF 2
ENDMDL
MODEL 6
REMARK VINA RESULT:      -7.3      3.052      6.391
REMARK SMILES O[C@@H]1[C@H]2O[C@H]2c2c(ccc3c4ccccc4c4ccccc4c23)[C@@H]1O
REMARK SMILES IDX 24 1 7 2 8 3 9 4 10 5 11 6 12 7 13 8 14 9 15 10 16 11 17 12
REMARK SMILES IDX 18 13 19 14 20 15 21 16 22 17 23 18 6 19 5 20 4 21 3 22 2 23
REMARK SMILES IDX 25 24 1 26
REMARK H PARENT 25 25 1 27
ROOT
ATOM      1  C   UNL     1     104.626  92.852 118.637  1.00  0.00     0.176 C 
ATOM      2  C   UNL     1     104.817  93.078 117.159  1.00  0.00    -0.010 A 
ATOM      3  C   UNL     1     105.464  92.115 116.385  1.00  0.00     0.007 A 
ATOM      4  C   UNL     1     105.791  92.384 115.061  1.00  0.00     0.010 A 
ATOM      5  C   UNL     1     105.374  93.583 114.437  1.00  0.00    -0.009 A 
ATOM      6  C   UNL     1     105.824  93.964 113.140  1.00  0.00    -0.010 A 
ATOM      7  C   UNL     1     106.886  93.280 112.491  1.00  0.00     0.009 A 
ATOM      8  C   UNL     1     107.364  93.699 111.254  1.00  0.00     0.001 A 
ATOM      9  C   UNL     1     106.821  94.816 110.640  1.00  0.00     0.001 A 
ATOM     10  C   UNL     1     105.786  95.517 111.250  1.00  0.00     0.009 A 
ATOM     11  C   UNL     1     105.252  95.104 112.498  1.00  0.00    -0.010 A 
ATOM     12  C   UNL     1     104.143  95.764 113.101  1.00  0.00    -0.010 A 
ATOM     13  C   UNL     1     103.387  96.757 112.421  1.00  0.00     0.009 A 
ATOM     14  C   UNL     1     102.220  97.277 112.974  1.00  0.00     0.001 A 
ATOM     15  C   UNL     1     101.746  96.793 114.184  1.00  0.00     0.001 A 
ATOM     16  C   UNL     1     102.472  95.831 114.878  1.00  0.00     0.009 A 
ATOM     17  C   UNL     1     103.725  95.378 114.406  1.00  0.00    -0.010 A 
ATOM     18  C   UNL     1     104.482  94.431 115.145  1.00  0.00    -0.004 A 
ATOM     19  C   UNL     1     104.371  94.276 116.562  1.00  0.00    -0.002 A 
ATOM     20  C   UNL     1     104.065  95.460 117.476  1.00  0.00     0.181 C 
ATOM     21  O   UNL     1     105.265  96.031 117.943  1.00  0.00    -0.362 OA
ATOM     22  C   UNL     1     104.471  95.380 118.909  1.00  0.00     0.184 C 
ATOM     23  C   UNL     1     105.141  94.084 119.404  1.00  0.00     0.179 C 
ENDROOT
BRANCH   1  24
ATOM     24  O   UNL     1     103.259  92.643 118.887  1.00  0.00    -0.386 OA
ATOM     25  H   UNL     1     102.726  93.312 118.387  1.00  0.00     0.211 HD
ENDBRANCH   1  24
BRANCH  23  26
ATOM     26  O   UNL     1     104.956  93.923 120.788  1.00  0.00    -0.387 OA
ATOM     27  H   UNL     1     105.771  93.524 121.186  1.00  0.00     0.211 HD
ENDBRANCH  23  26
TORSDOF 2
ENDMDL
MODEL 7
REMARK VINA RESULT:      -7.2      1.816      3.976
REMARK SMILES O[C@@H]1[C@H]2O[C@H]2c2c(ccc3c4ccccc4c4ccccc4c23)[C@@H]1O
REMARK SMILES IDX 24 1 7 2 8 3 9 4 10 5 11 6 12 7 13 8 14 9 15 10 16 11 17 12
REMARK SMILES IDX 18 13 19 14 20 15 21 16 22 17 23 18 6 19 5 20 4 21 3 22 2 23
REMARK SMILES IDX 25 24 1 26
REMARK H PARENT 25 25 1 27
ROOT
ATOM      1  C   UNL     1     106.287  95.197 112.085  1.00  0.00     0.176 C 
ATOM      2  C   UNL     1     105.720  95.409 113.465  1.00  0.00    -0.010 A 
ATOM      3  C   UNL     1     105.769  96.673 114.052  1.00  0.00     0.007 A 
ATOM      4  C   UNL     1     105.401  96.843 115.382  1.00  0.00     0.010 A 
ATOM      5  C   UNL     1     104.863  95.771 116.132  1.00  0.00    -0.009 A 
ATOM      6  C   UNL     1     104.627  95.865 117.533  1.00  0.00    -0.010 A 
ATOM      7  C   UNL     1     105.124  96.951 118.300  1.00  0.00     0.009 A 
ATOM      8  C   UNL     1     104.947  97.001 119.679  1.00  0.00     0.001 A 
ATOM      9  C   UNL     1     104.297  95.969 120.336  1.00  0.00     0.001 A 
ATOM     10  C   UNL     1     103.805  94.884 119.619  1.00  0.00     0.009 A 
ATOM     11  C   UNL     1     103.940  94.809 118.208  1.00  0.00    -0.010 A 
ATOM     12  C   UNL     1     103.376  93.744 117.449  1.00  0.00    -0.010 A 
ATOM     13  C   UNL     1     102.496  92.786 118.021  1.00  0.00     0.009 A 
ATOM     14  C   UNL     1     101.842  91.846 117.228  1.00  0.00     0.001 A 
ATOM     15  C   UNL     1     102.001  91.865 115.851  1.00  0.00     0.001 A 
ATOM     16  C   UNL     1     102.867  92.783 115.266  1.00  0.00     0.009 A 
ATOM     17  C   UNL     1     103.643  93.663 116.053  1.00  0.00    -0.010 A 
ATOM     18  C   UNL     1     104.558  94.564 115.450  1.00  0.00    -0.004 A 
ATOM     19  C   UNL     1     105.171  94.324 114.179  1.00  0.00    -0.002 A 
ATOM     20  C   UNL     1     105.509  92.912 113.708  1.00  0.00     0.181 C 
ATOM     21  O   UNL     1     106.835  92.591 114.060  1.00  0.00    -0.362 OA
ATOM     22  C   UNL     1     106.578  92.738 112.682  1.00  0.00     0.184 C 
ATOM     23  C   UNL     1     107.255  94.001 112.117  1.00  0.00     0.179 C 
ENDROOT
BRANCH   1  24
ATOM     24  O   UNL     1     105.225  94.957 111.195  1.00  0.00    -0.386 OA
ATOM     25  H   UNL     1     105.528  94.345 110.478  1.00  0.00     0.211 HD
ENDBRANCH   1  24
BRANCH  23  26
ATOM     26  O   UNL     1     107.786  93.754 110.839  1.00  0.00    -0.387 OA
ATOM     27  H   UNL     1     108.761  93.594 110.912  1.00  0.00     0.211 HD
ENDBRANCH  23  26
TORSDOF 2
ENDMDL
MODEL 8
REMARK VINA RESULT:      -7.1      2.508      4.274
REMARK SMILES O[C@@H]1[C@H]2O[C@H]2c2c(ccc3c4ccccc4c4ccccc4c23)[C@@H]1O
REMARK SMILES IDX 24 1 7 2 8 3 9 4 10 5 11 6 12 7 13 8 14 9 15 10 16 11 17 12
REMARK SMILES IDX 18 13 19 14 20 15 21 16 22 17 23 18 6 19 5 20 4 21 3 22 2 23
REMARK SMILES IDX 25 24 1 26
REMARK H PARENT 25 25 1 27
ROOT
ATOM      1  C   UNL     1     106.196  94.823 112.237  1.00  0.00     0.176 C 
ATOM      2  C   UNL     1     105.784  95.425 113.556  1.00  0.00    -0.010 A 
ATOM      3  C   UNL     1     105.461  96.779 113.634  1.00  0.00     0.007 A 
ATOM      4  C   UNL     1     105.241  97.378 114.869  1.00  0.00     0.010 A 
ATOM      5  C   UNL     1     105.224  96.611 116.058  1.00  0.00    -0.009 A 
ATOM      6  C   UNL     1     105.164  97.208 117.349  1.00  0.00    -0.010 A 
ATOM      7  C   UNL     1     105.343  98.604 117.532  1.00  0.00     0.009 A 
ATOM      8  C   UNL     1     105.349  99.171 118.802  1.00  0.00     0.001 A 
ATOM      9  C   UNL     1     105.202  98.369 119.923  1.00  0.00     0.001 A 
ATOM     10  C   UNL     1     105.034  96.996 119.784  1.00  0.00     0.009 A 
ATOM     11  C   UNL     1     104.994  96.384 118.503  1.00  0.00    -0.010 A 
ATOM     12  C   UNL     1     104.746  94.991 118.339  1.00  0.00    -0.010 A 
ATOM     13  C   UNL     1     104.349  94.156 119.418  1.00  0.00     0.009 A 
ATOM     14  C   UNL     1     103.968  92.834 119.203  1.00  0.00     0.001 A 
ATOM     15  C   UNL     1     103.922  92.323 117.915  1.00  0.00     0.001 A 
ATOM     16  C   UNL     1     104.318  93.113 116.841  1.00  0.00     0.009 A 
ATOM     17  C   UNL     1     104.832  94.415 117.040  1.00  0.00    -0.010 A 
ATOM     18  C   UNL     1     105.278  95.197 115.942  1.00  0.00    -0.004 A 
ATOM     19  C   UNL     1     105.757  94.628 114.720  1.00  0.00    -0.002 A 
ATOM     20  C   UNL     1     106.506  93.298 114.695  1.00  0.00     0.181 C 
ATOM     21  O   UNL     1     107.894  93.526 114.772  1.00  0.00    -0.362 OA
ATOM     22  C   UNL     1     107.417  93.013 113.549  1.00  0.00     0.184 C 
ATOM     23  C   UNL     1     107.520  94.061 112.424  1.00  0.00     0.179 C 
ENDROOT
BRANCH   1  24
ATOM     24  O   UNL     1     105.178  93.958 111.801  1.00  0.00    -0.386 OA
ATOM     25  H   UNL     1     104.919  93.354 112.541  1.00  0.00     0.211 HD
ENDBRANCH   1  24
BRANCH  23  26
ATOM     26  O   UNL     1     107.925  93.461 111.218  1.00  0.00    -0.387 OA
ATOM     27  H   UNL     1     107.234  93.614 110.525  1.00  0.00     0.211 HD
ENDBRANCH  23  26
TORSDOF 2
ENDMDL
MODEL 9
REMARK VINA RESULT:      -6.9      3.640      3.805
REMARK SMILES O[C@@H]1[C@H]2O[C@H]2c2c(ccc3c4ccccc4c4ccccc4c23)[C@@H]1O
REMARK SMILES IDX 24 1 7 2 8 3 9 4 10 5 11 6 12 7 13 8 14 9 15 10 16 11 17 12
REMARK SMILES IDX 18 13 19 14 20 15 21 16 22 17 23 18 6 19 5 20 4 21 3 22 2 23
REMARK SMILES IDX 25 24 1 26
REMARK H PARENT 25 25 1 27
ROOT
ATOM      1  C   UNL     1     105.212  93.102 112.241  1.00  0.00     0.176 C 
ATOM      2  C   UNL     1     104.353  93.975 113.120  1.00  0.00    -0.010 A 
ATOM      3  C   UNL     1     102.974  94.022 112.921  1.00  0.00     0.007 A 
ATOM      4  C   UNL     1     102.197  94.944 113.613  1.00  0.00     0.010 A 
ATOM      5  C   UNL     1     102.763  95.769 114.613  1.00  0.00    -0.009 A 
ATOM      6  C   UNL     1     102.037  96.830 115.226  1.00  0.00    -0.010 A 
ATOM      7  C   UNL     1     100.787  97.267 114.716  1.00  0.00     0.009 A 
ATOM      8  C   UNL     1     100.116  98.348 115.280  1.00  0.00     0.001 A 
ATOM      9  C   UNL     1     100.675  99.037 116.344  1.00  0.00     0.001 A 
ATOM     10  C   UNL     1     101.904  98.644 116.864  1.00  0.00     0.009 A 
ATOM     11  C   UNL     1     102.606  97.529 116.335  1.00  0.00    -0.010 A 
ATOM     12  C   UNL     1     103.827  97.065 116.903  1.00  0.00    -0.010 A 
ATOM     13  C   UNL     1     104.332  97.567 118.132  1.00  0.00     0.009 A 
ATOM     14  C   UNL     1     105.446  96.994 118.740  1.00  0.00     0.001 A 
ATOM     15  C   UNL     1     106.053  95.882 118.175  1.00  0.00     0.001 A 
ATOM     16  C   UNL     1     105.588  95.379 116.965  1.00  0.00     0.009 A 
ATOM     17  C   UNL     1     104.543  96.016 116.260  1.00  0.00    -0.010 A 
ATOM     18  C   UNL     1     104.106  95.522 115.003  1.00  0.00    -0.004 A 
ATOM     19  C   UNL     1     104.946  94.771 114.123  1.00  0.00    -0.002 A 
ATOM     20  C   UNL     1     106.449  95.024 114.040  1.00  0.00     0.181 C 
ATOM     21  O   UNL     1     106.726  95.949 113.014  1.00  0.00    -0.362 OA
ATOM     22  C   UNL     1     107.173  94.630 112.797  1.00  0.00     0.184 C 
ATOM     23  C   UNL     1     106.370  93.943 111.675  1.00  0.00     0.179 C 
ENDROOT
BRANCH   1  24
ATOM     24  O   UNL     1     105.700  92.032 113.010  1.00  0.00    -0.386 OA
ATOM     25  H   UNL     1     106.275  91.457 112.445  1.00  0.00     0.211 HD
ENDBRANCH   1  24
BRANCH  23  26
ATOM     26  O   UNL     1     107.211  93.157 110.868  1.00  0.00    -0.387 OA
ATOM     27  H   UNL     1     106.902  92.216 110.889  1.00  0.00     0.211 HD
ENDBRANCH  23  26
TORSDOF 2
ENDMDL
MODEL 10
REMARK VINA RESULT:      -6.9      3.057      6.641
REMARK SMILES O[C@@H]1[C@H]2O[C@H]2c2c(ccc3c4ccccc4c4ccccc4c23)[C@@H]1O
REMARK SMILES IDX 24 1 7 2 8 3 9 4 10 5 11 6 12 7 13 8 14 9 15 10 16 11 17 12
REMARK SMILES IDX 18 13 19 14 20 15 21 16 22 17 23 18 6 19 5 20 4 21 3 22 2 23
REMARK SMILES IDX 25 24 1 26
REMARK H PARENT 25 25 1 27
ROOT
ATOM      1  C   UNL     1     103.857  95.227 119.394  1.00  0.00     0.176 C 
ATOM      2  C   UNL     1     104.462  95.279 118.015  1.00  0.00    -0.010 A 
ATOM      3  C   UNL     1     105.309  96.329 117.664  1.00  0.00     0.007 A 
ATOM      4  C   UNL     1     105.738  96.476 116.350  1.00  0.00     0.010 A 
ATOM      5  C   UNL     1     105.426  95.505 115.370  1.00  0.00    -0.009 A 
ATOM      6  C   UNL     1     105.709  95.700 113.987  1.00  0.00    -0.010 A 
ATOM      7  C   UNL     1     106.113  96.964 113.482  1.00  0.00     0.009 A 
ATOM      8  C   UNL     1     106.323  97.163 112.122  1.00  0.00     0.001 A 
ATOM      9  C   UNL     1     106.116  96.127 111.226  1.00  0.00     0.001 A 
ATOM     10  C   UNL     1     105.710  94.877 111.683  1.00  0.00     0.009 A 
ATOM     11  C   UNL     1     105.513  94.626 113.066  1.00  0.00    -0.010 A 
ATOM     12  C   UNL     1     105.172  93.334 113.559  1.00  0.00    -0.010 A 
ATOM     13  C   UNL     1     105.180  92.178 112.732  1.00  0.00     0.009 A 
ATOM     14  C   UNL     1     104.990  90.907 113.270  1.00  0.00     0.001 A 
ATOM     15  C   UNL     1     104.841  90.746 114.639  1.00  0.00     0.001 A 
ATOM     16  C   UNL     1     104.815  91.860 115.470  1.00  0.00     0.009 A 
ATOM     17  C   UNL     1     104.875  93.170 114.942  1.00  0.00    -0.010 A 
ATOM     18  C   UNL     1     104.801  94.303 115.793  1.00  0.00    -0.004 A 
ATOM     19  C   UNL     1     104.147  94.284 117.065  1.00  0.00    -0.002 A 
ATOM     20  C   UNL     1     102.920  93.412 117.322  1.00  0.00     0.181 C 
ATOM     21  O   UNL     1     101.745  94.149 117.076  1.00  0.00    -0.362 OA
ATOM     22  C   UNL     1     101.987  93.798 118.420  1.00  0.00     0.184 C 
ATOM     23  C   UNL     1     102.335  95.036 119.269  1.00  0.00     0.179 C 
ENDROOT
BRANCH   1  24
ATOM     24  O   UNL     1     104.438  94.159 120.100  1.00  0.00    -0.386 OA
ATOM     25  H   UNL     1     104.971  94.515 120.856  1.00  0.00     0.211 HD
ENDBRANCH   1  24
BRANCH  23  26
ATOM     26  O   UNL     1     101.735  94.956 120.538  1.00  0.00    -0.387 OA
ATOM     27  H   UNL     1     101.900  95.797 121.034  1.00  0.00     0.211 HD
ENDBRANCH  23  26
TORSDOF 2
ENDMDL
MODEL 11
REMARK VINA RESULT:      -6.9     14.537     16.192
REMARK SMILES O[C@@H]1[C@H]2O[C@H]2c2c(ccc3c4ccccc4c4ccccc4c23)[C@@H]1O
REMARK SMILES IDX 24 1 7 2 8 3 9 4 10 5 11 6 12 7 13 8 14 9 15 10 16 11 17 12
REMARK SMILES IDX 18 13 19 14 20 15 21 16 22 17 23 18 6 19 5 20 4 21 3 22 2 23
REMARK SMILES IDX 25 24 1 26
REMARK H PARENT 25 25 1 27
ROOT
ATOM      1  C   UNL     1     121.595  96.424 120.604  1.00  0.00     0.176 C 
ATOM      2  C   UNL     1     120.474  96.701 121.572  1.00  0.00    -0.010 A 
ATOM      3  C   UNL     1     120.120  95.743 122.522  1.00  0.00     0.007 A 
ATOM      4  C   UNL     1     118.986  95.919 123.307  1.00  0.00     0.010 A 
ATOM      5  C   UNL     1     118.236  97.116 123.244  1.00  0.00    -0.009 A 
ATOM      6  C   UNL     1     116.985  97.267 123.909  1.00  0.00    -0.010 A 
ATOM      7  C   UNL     1     116.311  96.159 124.486  1.00  0.00     0.009 A 
ATOM      8  C   UNL     1     115.059  96.303 125.075  1.00  0.00     0.001 A 
ATOM      9  C   UNL     1     114.434  97.539 125.088  1.00  0.00     0.001 A 
ATOM     10  C   UNL     1     115.059  98.646 124.524  1.00  0.00     0.009 A 
ATOM     11  C   UNL     1     116.349  98.546 123.939  1.00  0.00    -0.010 A 
ATOM     12  C   UNL     1     117.037  99.682 123.426  1.00  0.00    -0.010 A 
ATOM     13  C   UNL     1     116.566 101.009 123.621  1.00  0.00     0.009 A 
ATOM     14  C   UNL     1     117.331 102.108 123.241  1.00  0.00     0.001 A 
ATOM     15  C   UNL     1     118.599 101.923 122.709  1.00  0.00     0.001 A 
ATOM     16  C   UNL     1     119.079 100.636 122.493  1.00  0.00     0.009 A 
ATOM     17  C   UNL     1     118.276  99.502 122.748  1.00  0.00    -0.010 A 
ATOM     18  C   UNL     1     118.757  98.194 122.481  1.00  0.00    -0.004 A 
ATOM     19  C   UNL     1     119.758  97.914 121.498  1.00  0.00    -0.002 A 
ATOM     20  C   UNL     1     119.873  98.736 120.216  1.00  0.00     0.181 C 
ATOM     21  O   UNL     1     119.130  98.128 119.186  1.00  0.00    -0.362 OA
ATOM     22  C   UNL     1     120.531  98.119 119.028  1.00  0.00     0.184 C 
ATOM     23  C   UNL     1     121.102  96.695 119.172  1.00  0.00     0.179 C 
ENDROOT
BRANCH   1  24
ATOM     24  O   UNL     1     122.681  97.256 120.925  1.00  0.00    -0.386 OA
ATOM     25  H   UNL     1     122.348  98.077 121.367  1.00  0.00     0.211 HD
ENDBRANCH   1  24
BRANCH  23  26
ATOM     26  O   UNL     1     122.130  96.472 118.239  1.00  0.00    -0.387 OA
ATOM     27  H   UNL     1     122.900  97.058 118.450  1.00  0.00     0.211 HD
ENDBRANCH  23  26
TORSDOF 2
ENDMDL
MODEL 12
REMARK VINA RESULT:      -6.8     18.432     20.509
REMARK SMILES O[C@@H]1[C@H]2O[C@H]2c2c(ccc3c4ccccc4c4ccccc4c23)[C@@H]1O
REMARK SMILES IDX 24 1 7 2 8 3 9 4 10 5 11 6 12 7 13 8 14 9 15 10 16 11 17 12
REMARK SMILES IDX 18 13 19 14 20 15 21 16 22 17 23 18 6 19 5 20 4 21 3 22 2 23
REMARK SMILES IDX 25 24 1 26
REMARK H PARENT 25 25 1 27
ROOT
ATOM      1  C   UNL     1     123.090  86.040 105.309  1.00  0.00     0.176 C 
ATOM      2  C   UNL     1     122.375  85.821 106.618  1.00  0.00    -0.010 A 
ATOM      3  C   UNL     1     121.673  86.868 107.212  1.00  0.00     0.007 A 
ATOM      4  C   UNL     1     121.152  86.725 108.493  1.00  0.00     0.010 A 
ATOM      5  C   UNL     1     121.218  85.486 109.172  1.00  0.00    -0.009 A 
ATOM      6  C   UNL     1     120.842  85.345 110.539  1.00  0.00    -0.010 A 
ATOM      7  C   UNL     1     120.594  86.475 111.362  1.00  0.00     0.009 A 
ATOM      8  C   UNL     1     120.292  86.331 112.712  1.00  0.00     0.001 A 
ATOM      9  C   UNL     1     120.252  85.071 113.286  1.00  0.00     0.001 A 
ATOM     10  C   UNL     1     120.499  83.941 112.513  1.00  0.00     0.009 A 
ATOM     11  C   UNL     1     120.782  84.045 111.126  1.00  0.00    -0.010 A 
ATOM     12  C   UNL     1     120.962  82.896 110.304  1.00  0.00    -0.010 A 
ATOM     13  C   UNL     1     120.699  81.579 110.768  1.00  0.00     0.009 A 
ATOM     14  C   UNL     1     120.738  80.489 109.902  1.00  0.00     0.001 A 
ATOM     15  C   UNL     1     120.987  80.681 108.552  1.00  0.00     0.001 A 
ATOM     16  C   UNL     1     121.263  81.957 108.072  1.00  0.00     0.009 A 
ATOM     17  C   UNL     1     121.358  83.063 108.946  1.00  0.00    -0.010 A 
ATOM     18  C   UNL     1     121.685  84.354 108.454  1.00  0.00    -0.004 A 
ATOM     19  C   UNL     1     122.443  84.567 107.260  1.00  0.00    -0.002 A 
ATOM     20  C   UNL     1     123.538  83.597 106.823  1.00  0.00     0.181 C 
ATOM     21  O   UNL     1     124.785  84.022 107.321  1.00  0.00    -0.362 OA
ATOM     22  C   UNL     1     124.617  84.096 105.923  1.00  0.00     0.184 C 
ATOM     23  C   UNL     1     124.546  85.559 105.444  1.00  0.00     0.179 C 
ENDROOT
BRANCH   1  24
ATOM     24  O   UNL     1     122.417  85.323 104.304  1.00  0.00    -0.386 OA
ATOM     25  H   UNL     1     121.589  85.805 104.054  1.00  0.00     0.211 HD
ENDBRANCH   1  24
BRANCH  23  26
ATOM     26  O   UNL     1     125.240  85.723 104.233  1.00  0.00    -0.387 OA
ATOM     27  H   UNL     1     126.105  85.242 104.281  1.00  0.00     0.211 HD
ENDBRANCH  23  26
TORSDOF 2
ENDMDL
MODEL 13
REMARK VINA RESULT:      -6.8     11.991     14.851
REMARK SMILES O[C@@H]1[C@H]2O[C@H]2c2c(ccc3c4ccccc4c4ccccc4c23)[C@@H]1O
REMARK SMILES IDX 24 1 7 2 8 3 9 4 10 5 11 6 12 7 13 8 14 9 15 10 16 11 17 12
REMARK SMILES IDX 18 13 19 14 20 15 21 16 22 17 23 18 6 19 5 20 4 21 3 22 2 23
REMARK SMILES IDX 25 24 1 26
REMARK H PARENT 25 25 1 27
ROOT
ATOM      1  C   UNL     1     120.488  95.816 120.620  1.00  0.00     0.176 C 
ATOM      2  C   UNL     1     119.141  95.934 121.286  1.00  0.00    -0.010 A 
ATOM      3  C   UNL     1     118.329  94.809 121.421  1.00  0.00     0.007 A 
ATOM      4  C   UNL     1     117.023  94.938 121.882  1.00  0.00     0.010 A 
ATOM      5  C   UNL     1     116.530  96.184 122.333  1.00  0.00    -0.009 A 
ATOM      6  C   UNL     1     115.158  96.388 122.658  1.00  0.00    -0.010 A 
ATOM      7  C   UNL     1     114.167  95.424 122.337  1.00  0.00     0.009 A 
ATOM      8  C   UNL     1     112.821  95.658 122.598  1.00  0.00     0.001 A 
ATOM      9  C   UNL     1     112.420  96.860 123.159  1.00  0.00     0.001 A 
ATOM     10  C   UNL     1     113.361  97.833 123.478  1.00  0.00     0.009 A 
ATOM     11  C   UNL     1     114.747  97.619 123.253  1.00  0.00    -0.010 A 
ATOM     12  C   UNL     1     115.731  98.572 123.643  1.00  0.00    -0.010 A 
ATOM     13  C   UNL     1     115.418  99.709 124.435  1.00  0.00     0.009 A 
ATOM     14  C   UNL     1     116.419 100.542 124.928  1.00  0.00     0.001 A 
ATOM     15  C   UNL     1     117.753 100.241 124.693  1.00  0.00     0.001 A 
ATOM     16  C   UNL     1     118.088  99.143 123.909  1.00  0.00     0.009 A 
ATOM     17  C   UNL     1     117.093  98.354 123.288  1.00  0.00    -0.010 A 
ATOM     18  C   UNL     1     117.445  97.263 122.453  1.00  0.00    -0.004 A 
ATOM     19  C   UNL     1     118.686  97.188 121.744  1.00  0.00    -0.002 A 
ATOM     20  C   UNL     1     119.382  98.440 121.215  1.00  0.00     0.181 C 
ATOM     21  O   UNL     1     118.992  98.681 119.883  1.00  0.00    -0.362 OA
ATOM     22  C   UNL     1     120.335  98.300 120.076  1.00  0.00     0.184 C 
ATOM     23  C   UNL     1     120.601  96.887 119.521  1.00  0.00     0.179 C 
ENDROOT
BRANCH   1  24
ATOM     24  O   UNL     1     121.487  95.990 121.593  1.00  0.00    -0.386 OA
ATOM     25  H   UNL     1     121.191  95.582 122.446  1.00  0.00     0.211 HD
ENDBRANCH   1  24
BRANCH  23  26
ATOM     26  O   UNL     1     121.857  96.826 118.892  1.00  0.00    -0.387 OA
ATOM     27  H   UNL     1     121.755  96.434 117.988  1.00  0.00     0.211 HD
ENDBRANCH  23  26
TORSDOF 2
ENDMDL
MODEL 14
REMARK VINA RESULT:      -6.8      2.593      3.681
REMARK SMILES O[C@@H]1[C@H]2O[C@H]2c2c(ccc3c4ccccc4c4ccccc4c23)[C@@H]1O
REMARK SMILES IDX 24 1 7 2 8 3 9 4 10 5 11 6 12 7 13 8 14 9 15 10 16 11 17 12
REMARK SMILES IDX 18 13 19 14 20 15 21 16 22 17 23 18 6 19 5 20 4 21 3 22 2 23
REMARK SMILES IDX 25 24 1 26
REMARK H PARENT 25 25 1 27
ROOT
ATOM      1  C   UNL     1     107.198  94.133 113.107  1.00  0.00     0.176 C 
ATOM      2  C   UNL     1     106.364  94.244 114.358  1.00  0.00    -0.010 A 
ATOM      3  C   UNL     1     106.915  93.913 115.595  1.00  0.00     0.007 A 
ATOM      4  C   UNL     1     106.110  93.853 116.727  1.00  0.00     0.010 A 
ATOM      5  C   UNL     1     104.750  94.238 116.676  1.00  0.00    -0.009 A 
ATOM      6  C   UNL     1     103.860  94.038 117.769  1.00  0.00    -0.010 A 
ATOM      7  C   UNL     1     104.223  93.243 118.888  1.00  0.00     0.009 A 
ATOM      8  C   UNL     1     103.324  92.998 119.921  1.00  0.00     0.001 A 
ATOM      9  C   UNL     1     102.039  93.512 119.862  1.00  0.00     0.001 A 
ATOM     10  C   UNL     1     101.644  94.288 118.777  1.00  0.00     0.009 A 
ATOM     11  C   UNL     1     102.541  94.584 117.717  1.00  0.00    -0.010 A 
ATOM     12  C   UNL     1     102.179  95.439 116.637  1.00  0.00    -0.010 A 
ATOM     13  C   UNL     1     100.973  96.190 116.633  1.00  0.00     0.009 A 
ATOM     14  C   UNL     1     100.713  97.130 115.638  1.00  0.00     0.001 A 
ATOM     15  C   UNL     1     101.660  97.385 114.657  1.00  0.00     0.001 A 
ATOM     16  C   UNL     1     102.843  96.654 114.629  1.00  0.00     0.009 A 
ATOM     17  C   UNL     1     103.078  95.605 115.546  1.00  0.00    -0.010 A 
ATOM     18  C   UNL     1     104.268  94.835 115.481  1.00  0.00    -0.004 A 
ATOM     19  C   UNL     1     105.015  94.650 114.275  1.00  0.00    -0.002 A 
ATOM     20  C   UNL     1     104.333  94.592 112.911  1.00  0.00     0.181 C 
ATOM     21  O   UNL     1     104.046  93.255 112.572  1.00  0.00    -0.362 OA
ATOM     22  C   UNL     1     105.030  93.895 111.792  1.00  0.00     0.184 C 
ATOM     23  C   UNL     1     106.429  93.307 112.061  1.00  0.00     0.179 C 
ENDROOT
BRANCH   1  24
ATOM     24  O   UNL     1     107.463  95.427 112.627  1.00  0.00    -0.386 OA
ATOM     25  H   UNL     1     107.934  95.366 111.758  1.00  0.00     0.211 HD
ENDBRANCH   1  24
BRANCH  23  26
ATOM     26  O   UNL     1     107.165  93.202 110.868  1.00  0.00    -0.387 OA
ATOM     27  H   UNL     1     106.938  92.352 110.414  1.00  0.00     0.211 HD
ENDBRANCH  23  26
TORSDOF 2
ENDMDL
MODEL 15
REMARK VINA RESULT:      -6.8      2.153      2.416
REMARK SMILES O[C@@H]1[C@H]2O[C@H]2c2c(ccc3c4ccccc4c4ccccc4c23)[C@@H]1O
REMARK SMILES IDX 24 1 7 2 8 3 9 4 10 5 11 6 12 7 13 8 14 9 15 10 16 11 17 12
REMARK SMILES IDX 18 13 19 14 20 15 21 16 22 17 23 18 6 19 5 20 4 21 3 22 2 23
REMARK SMILES IDX 25 24 1 26
REMARK H PARENT 25 25 1 27
ROOT
ATOM      1  C   UNL     1     103.142  95.304 112.176  1.00  0.00     0.176 C 
ATOM      2  C   UNL     1     103.026  94.420 113.391  1.00  0.00    -0.010 A 
ATOM      3  C   UNL     1     102.299  93.232 113.322  1.00  0.00     0.007 A 
ATOM      4  C   UNL     1     102.048  92.495 114.474  1.00  0.00     0.010 A 
ATOM      5  C   UNL     1     102.618  92.866 115.714  1.00  0.00    -0.009 A 
ATOM      6  C   UNL     1     102.257  92.234 116.938  1.00  0.00    -0.010 A 
ATOM      7  C   UNL     1     101.146  91.354 117.021  1.00  0.00     0.009 A 
ATOM      8  C   UNL     1     100.759  90.793 118.233  1.00  0.00     0.001 A 
ATOM      9  C   UNL     1     101.444  91.106 119.396  1.00  0.00     0.001 A 
ATOM     10  C   UNL     1     102.532  91.972 119.355  1.00  0.00     0.009 A 
ATOM     11  C   UNL     1     102.975  92.542 118.134  1.00  0.00    -0.010 A 
ATOM     12  C   UNL     1     104.133  93.369 118.061  1.00  0.00    -0.010 A 
ATOM     13  C   UNL     1     105.018  93.536 119.160  1.00  0.00     0.009 A 
ATOM     14  C   UNL     1     106.219  94.227 119.019  1.00  0.00     0.001 A 
ATOM     15  C   UNL     1     106.595  94.723 117.780  1.00  0.00     0.001 A 
ATOM     16  C   UNL     1     105.742  94.587 116.690  1.00  0.00     0.009 A 
ATOM     17  C   UNL     1     104.461  94.006 116.831  1.00  0.00    -0.010 A 
ATOM     18  C   UNL     1     103.578  93.912 115.723  1.00  0.00    -0.004 A 
ATOM     19  C   UNL     1     103.624  94.807 114.609  1.00  0.00    -0.002 A 
ATOM     20  C   UNL     1     104.034  96.269 114.772  1.00  0.00     0.181 C 
ATOM     21  O   UNL     1     102.892  97.069 114.971  1.00  0.00    -0.362 OA
ATOM     22  C   UNL     1     103.575  97.258 113.753  1.00  0.00     0.184 C 
ATOM     23  C   UNL     1     102.747  96.741 112.561  1.00  0.00     0.179 C 
ENDROOT
BRANCH   1  24
ATOM     24  O   UNL     1     104.468  95.258 111.711  1.00  0.00    -0.386 OA
ATOM     25  H   UNL     1     105.087  95.230 112.484  1.00  0.00     0.211 HD
ENDBRANCH   1  24
BRANCH  23  26
ATOM     26  O   UNL     1     102.867  97.604 111.458  1.00  0.00    -0.387 OA
ATOM     27  H   UNL     1     103.782  97.984 111.434  1.00  0.00     0.211 HD
ENDBRANCH  23  26
TORSDOF 2
ENDMDL
