MODEL 1
REMARK VINA RESULT:      -9.1      0.000      0.000
REMARK SMILES O=C1CC[C@@H](N2C(=O)[C@@H]3[C@H]4c5ccccc5[C@H](c5ccccc54)[C@H]3C2=O)C(=O)N1
REMARK SMILES IDX 28 1 1 2 29 3 5 4 4 5 27 6 3 7 2 8 6 10 8 11 7 12 9 13 25 14
REMARK SMILES IDX 24 15 10 16 26 17 17 18 23 19 11 20 18 21 16 22 22 23 12 24
REMARK SMILES IDX 19 25 15 26 21 27 13 28 20 29 14 30
REMARK H PARENT 29 9
ROOT
ATOM      1  O   UNL     1     114.954 100.735 119.853  1.00  0.00    -0.272 OA
ATOM      2  O   UNL     1     115.949 105.167 119.105  1.00  0.00    -0.275 OA
ATOM      3  N   UNL     1     115.500 102.941 119.493  1.00  0.00    -0.295 N 
ATOM      4  C   UNL     1     117.062 101.194 118.763  1.00  0.00     0.183 C 
ATOM      5  C   UNL     1     118.116 102.273 118.953  1.00  0.00     0.046 C 
ATOM      6  C   UNL     1     115.759 101.572 119.444  1.00  0.00     0.249 C 
ATOM      7  C   UNL     1     117.600 103.587 118.394  1.00  0.00     0.103 C 
ATOM      8  C   UNL     1     116.296 103.988 119.040  1.00  0.00     0.226 C 
ATOM      9  H   UNL     1     114.616 103.209 119.919  1.00  0.00     0.172 HD
ENDROOT
BRANCH   4  10
ATOM     10  N   UNL     1     117.506  99.938 119.306  1.00  0.00    -0.269 N 
ATOM     11  O   UNL     1     118.120 100.594 121.517  1.00  0.00    -0.274 OA
ATOM     12  C   UNL     1     117.907  99.769 120.648  1.00  0.00     0.234 C 
ATOM     13  C   UNL     1     117.892  98.275 120.798  1.00  0.00     0.104 C 
ATOM     14  C   UNL     1     117.585  98.749 118.552  1.00  0.00     0.234 C 
ATOM     15  C   UNL     1     118.452  97.881 119.417  1.00  0.00     0.104 C 
ATOM     16  C   UNL     1     118.489  97.345 121.872  1.00  0.00     0.063 C 
ATOM     17  O   UNL     1     117.161  98.494 117.439  1.00  0.00    -0.274 OA
ATOM     18  C   UNL     1     118.734  96.367 119.398  1.00  0.00     0.063 C 
ATOM     19  C   UNL     1     117.642  96.077 121.613  1.00  0.00    -0.036 A 
ATOM     20  C   UNL     1     119.917  96.932 121.514  1.00  0.00    -0.036 A 
ATOM     21  C   UNL     1     117.729  95.605 120.263  1.00  0.00    -0.036 A 
ATOM     22  C   UNL     1     120.047  96.340 120.216  1.00  0.00    -0.036 A 
ATOM     23  C   UNL     1     116.822  95.447 122.537  1.00  0.00     0.004 A 
ATOM     24  C   UNL     1     121.016  97.029 122.352  1.00  0.00     0.004 A 
ATOM     25  C   UNL     1     116.991  94.504 119.857  1.00  0.00     0.004 A 
ATOM     26  C   UNL     1     121.268  95.855 119.773  1.00  0.00     0.004 A 
ATOM     27  C   UNL     1     116.083  94.339 122.117  1.00  0.00     0.000 A 
ATOM     28  C   UNL     1     122.246  96.542 121.900  1.00  0.00     0.000 A 
ATOM     29  C   UNL     1     116.163  93.876 120.792  1.00  0.00     0.000 A 
ATOM     30  C   UNL     1     122.369  95.960 120.626  1.00  0.00     0.000 A 
ENDBRANCH   4  10
TORSDOF 1
ENDMDL
MODEL 2
REMARK VINA RESULT:      -9.1      0.024      3.705
REMARK SMILES O=C1CC[C@@H](N2C(=O)[C@@H]3[C@H]4c5ccccc5[C@H](c5ccccc54)[C@H]3C2=O)C(=O)N1
REMARK SMILES IDX 28 1 1 2 29 3 5 4 4 5 27 6 3 7 2 8 6 10 8 11 7 12 9 13 25 14
REMARK SMILES IDX 24 15 10 16 26 17 17 18 23 19 11 20 18 21 16 22 22 23 12 24
REMARK SMILES IDX 19 25 15 26 21 27 13 28 20 29 14 30
REMARK H PARENT 29 9
ROOT
ATOM      1  O   UNL     1     114.967 100.729 119.848  1.00  0.00    -0.272 OA
ATOM      2  O   UNL     1     115.940 105.167 119.103  1.00  0.00    -0.275 OA
ATOM      3  N   UNL     1     115.502 102.938 119.489  1.00  0.00    -0.295 N 
ATOM      4  C   UNL     1     117.067 101.199 118.746  1.00  0.00     0.183 C 
ATOM      5  C   UNL     1     118.117 102.282 118.931  1.00  0.00     0.046 C 
ATOM      6  C   UNL     1     115.767 101.571 119.436  1.00  0.00     0.249 C 
ATOM      7  C   UNL     1     117.593 103.595 118.379  1.00  0.00     0.103 C 
ATOM      8  C   UNL     1     116.291 103.990 119.034  1.00  0.00     0.226 C 
ATOM      9  H   UNL     1     114.620 103.202 119.921  1.00  0.00     0.172 HD
ENDROOT
BRANCH   4  10
ATOM     10  N   UNL     1     117.519  99.944 119.284  1.00  0.00    -0.269 N 
ATOM     11  O   UNL     1     117.185  98.502 117.413  1.00  0.00    -0.274 OA
ATOM     12  C   UNL     1     117.602  98.757 118.527  1.00  0.00     0.234 C 
ATOM     13  C   UNL     1     118.461  97.885 119.396  1.00  0.00     0.104 C 
ATOM     14  C   UNL     1     117.926  99.774 120.624  1.00  0.00     0.234 C 
ATOM     15  C   UNL     1     117.901  98.282 120.777  1.00  0.00     0.104 C 
ATOM     16  C   UNL     1     118.737  96.369 119.377  1.00  0.00     0.063 C 
ATOM     17  O   UNL     1     118.145 100.601 121.490  1.00  0.00    -0.274 OA
ATOM     18  C   UNL     1     118.493  97.348 121.850  1.00  0.00     0.063 C 
ATOM     19  C   UNL     1     120.048  96.336 120.196  1.00  0.00    -0.036 A 
ATOM     20  C   UNL     1     117.726  95.612 120.239  1.00  0.00    -0.036 A 
ATOM     21  C   UNL     1     119.919  96.928 121.495  1.00  0.00    -0.036 A 
ATOM     22  C   UNL     1     117.640  96.084 121.589  1.00  0.00    -0.036 A 
ATOM     23  C   UNL     1     121.268  95.845 119.755  1.00  0.00     0.004 A 
ATOM     24  C   UNL     1     116.983  94.515 119.832  1.00  0.00     0.004 A 
ATOM     25  C   UNL     1     121.018  97.020 122.335  1.00  0.00     0.004 A 
ATOM     26  C   UNL     1     116.816  95.457 122.511  1.00  0.00     0.004 A 
ATOM     27  C   UNL     1     122.368  95.943 120.610  1.00  0.00     0.000 A 
ATOM     28  C   UNL     1     116.151  93.890 120.765  1.00  0.00     0.000 A 
ATOM     29  C   UNL     1     122.245  96.526 121.883  1.00  0.00     0.000 A 
ATOM     30  C   UNL     1     116.071  94.354 122.089  1.00  0.00     0.000 A 
ENDBRANCH   4  10
TORSDOF 1
ENDMDL
MODEL 3
REMARK VINA RESULT:      -7.4     14.390     16.968
REMARK SMILES O=C1CC[C@@H](N2C(=O)[C@@H]3[C@H]4c5ccccc5[C@H](c5ccccc54)[C@H]3C2=O)C(=O)N1
REMARK SMILES IDX 28 1 1 2 29 3 5 4 4 5 27 6 3 7 2 8 6 10 8 11 7 12 9 13 25 14
REMARK SMILES IDX 24 15 10 16 26 17 17 18 23 19 11 20 18 21 16 22 22 23 12 24
REMARK SMILES IDX 19 25 15 26 21 27 13 28 20 29 14 30
REMARK H PARENT 29 9
ROOT
ATOM      1  O   UNL     1     106.035  94.901 117.853  1.00  0.00    -0.272 OA
ATOM      2  O   UNL     1     103.872  94.274 121.869  1.00  0.00    -0.275 OA
ATOM      3  N   UNL     1     104.909  94.593 119.836  1.00  0.00    -0.295 N 
ATOM      4  C   UNL     1     104.042  93.534 117.798  1.00  0.00     0.183 C 
ATOM      5  C   UNL     1     102.701  93.626 118.506  1.00  0.00     0.046 C 
ATOM      6  C   UNL     1     105.077  94.426 118.462  1.00  0.00     0.249 C 
ATOM      7  C   UNL     1     102.869  93.230 119.962  1.00  0.00     0.103 C 
ATOM      8  C   UNL     1     103.902  94.088 120.652  1.00  0.00     0.226 C 
ATOM      9  H   UNL     1     105.611  95.163 120.301  1.00  0.00     0.172 HD
ENDROOT
BRANCH   4  10
ATOM     10  N   UNL     1     103.926  93.930 116.420  1.00  0.00    -0.269 N 
ATOM     11  O   UNL     1     102.815  96.029 116.644  1.00  0.00    -0.274 OA
ATOM     12  C   UNL     1     103.399  95.171 116.008  1.00  0.00     0.234 C 
ATOM     13  C   UNL     1     103.846  95.248 114.577  1.00  0.00     0.104 C 
ATOM     14  C   UNL     1     104.329  93.115 115.341  1.00  0.00     0.234 C 
ATOM     15  C   UNL     1     103.648  93.772 114.176  1.00  0.00     0.104 C 
ATOM     16  C   UNL     1     103.407  96.153 113.411  1.00  0.00     0.063 C 
ATOM     17  O   UNL     1     104.973  92.082 115.333  1.00  0.00    -0.274 OA
ATOM     18  C   UNL     1     103.849  93.630 112.655  1.00  0.00     0.063 C 
ATOM     19  C   UNL     1     104.629  95.984 112.478  1.00  0.00    -0.036 A 
ATOM     20  C   UNL     1     102.244  95.533 112.636  1.00  0.00    -0.036 A 
ATOM     21  C   UNL     1     104.896  94.617 112.139  1.00  0.00    -0.036 A 
ATOM     22  C   UNL     1     102.499  94.205 112.164  1.00  0.00    -0.036 A 
ATOM     23  C   UNL     1     105.454  97.004 112.028  1.00  0.00     0.004 A 
ATOM     24  C   UNL     1     101.054  96.171 112.323  1.00  0.00     0.004 A 
ATOM     25  C   UNL     1     105.987  94.293 111.348  1.00  0.00     0.004 A 
ATOM     26  C   UNL     1     101.566  93.533 111.389  1.00  0.00     0.004 A 
ATOM     27  C   UNL     1     106.550  96.664 111.232  1.00  0.00     0.000 A 
ATOM     28  C   UNL     1     100.116  95.488 111.545  1.00  0.00     0.000 A 
ATOM     29  C   UNL     1     106.816  95.325 110.900  1.00  0.00     0.000 A 
ATOM     30  C   UNL     1     100.370  94.186 111.081  1.00  0.00     0.000 A 
ENDBRANCH   4  10
TORSDOF 1
ENDMDL
MODEL 4
REMARK VINA RESULT:      -7.4     14.412     16.783
REMARK SMILES O=C1CC[C@@H](N2C(=O)[C@@H]3[C@H]4c5ccccc5[C@H](c5ccccc54)[C@H]3C2=O)C(=O)N1
REMARK SMILES IDX 28 1 1 2 29 3 5 4 4 5 27 6 3 7 2 8 6 10 8 11 7 12 9 13 25 14
REMARK SMILES IDX 24 15 10 16 26 17 17 18 23 19 11 20 18 21 16 22 22 23 12 24
REMARK SMILES IDX 19 25 15 26 21 27 13 28 20 29 14 30
REMARK H PARENT 29 9
ROOT
ATOM      1  O   UNL     1     106.016  94.881 117.823  1.00  0.00    -0.272 OA
ATOM      2  O   UNL     1     103.870  94.295 121.854  1.00  0.00    -0.275 OA
ATOM      3  N   UNL     1     104.899  94.594 119.814  1.00  0.00    -0.295 N 
ATOM      4  C   UNL     1     104.004  93.541 117.785  1.00  0.00     0.183 C 
ATOM      5  C   UNL     1     102.669  93.654 118.501  1.00  0.00     0.046 C 
ATOM      6  C   UNL     1     105.055  94.420 118.439  1.00  0.00     0.249 C 
ATOM      7  C   UNL     1     102.841  93.260 119.957  1.00  0.00     0.103 C 
ATOM      8  C   UNL     1     103.890  94.106 120.638  1.00  0.00     0.226 C 
ATOM      9  H   UNL     1     105.612  95.155 120.272  1.00  0.00     0.172 HD
ENDROOT
BRANCH   4  10
ATOM     10  N   UNL     1     103.885  93.935 116.406  1.00  0.00    -0.269 N 
ATOM     11  O   UNL     1     104.845  92.044 115.312  1.00  0.00    -0.274 OA
ATOM     12  C   UNL     1     104.245  93.103 115.325  1.00  0.00     0.234 C 
ATOM     13  C   UNL     1     103.588  93.789 114.163  1.00  0.00     0.104 C 
ATOM     14  C   UNL     1     103.395  95.192 115.996  1.00  0.00     0.234 C 
ATOM     15  C   UNL     1     103.843  95.257 114.565  1.00  0.00     0.104 C 
ATOM     16  C   UNL     1     103.778  93.641 112.642  1.00  0.00     0.063 C 
ATOM     17  O   UNL     1     102.841  96.068 116.636  1.00  0.00    -0.274 OA
ATOM     18  C   UNL     1     103.434  96.178 113.400  1.00  0.00     0.063 C 
ATOM     19  C   UNL     1     102.450  94.266 112.154  1.00  0.00    -0.036 A 
ATOM     20  C   UNL     1     104.861  94.588 112.123  1.00  0.00    -0.036 A 
ATOM     21  C   UNL     1     102.247  95.603 112.628  1.00  0.00    -0.036 A 
ATOM     22  C   UNL     1     104.647  95.963 112.465  1.00  0.00    -0.036 A 
ATOM     23  C   UNL     1     101.489  93.630 111.381  1.00  0.00     0.004 A 
ATOM     24  C   UNL     1     105.937  94.223 111.330  1.00  0.00     0.004 A 
ATOM     25  C   UNL     1     101.081  96.286 112.318  1.00  0.00     0.004 A 
ATOM     26  C   UNL     1     105.507  96.951 112.012  1.00  0.00     0.004 A 
ATOM     27  C   UNL     1     100.319  94.328 111.077  1.00  0.00     0.000 A 
ATOM     28  C   UNL     1     106.803  95.222 110.879  1.00  0.00     0.000 A 
ATOM     29  C   UNL     1     100.116  95.638 111.542  1.00  0.00     0.000 A 
ATOM     30  C   UNL     1     106.589  96.571 111.214  1.00  0.00     0.000 A 
ENDBRANCH   4  10
TORSDOF 1
ENDMDL
MODEL 5
REMARK VINA RESULT:      -7.2     13.917     15.487
REMARK SMILES O=C1CC[C@@H](N2C(=O)[C@@H]3[C@H]4c5ccccc5[C@H](c5ccccc54)[C@H]3C2=O)C(=O)N1
REMARK SMILES IDX 28 1 1 2 29 3 5 4 4 5 27 6 3 7 2 8 6 10 8 11 7 12 9 13 25 14
REMARK SMILES IDX 24 15 10 16 26 17 17 18 23 19 11 20 18 21 16 22 22 23 12 24
REMARK SMILES IDX 19 25 15 26 21 27 13 28 20 29 14 30
REMARK H PARENT 29 9
ROOT
ATOM      1  O   UNL     1     104.202  93.973 120.028  1.00  0.00    -0.272 OA
ATOM      2  O   UNL     1     104.296  97.194 123.316  1.00  0.00    -0.275 OA
ATOM      3  N   UNL     1     104.263  95.617 121.636  1.00  0.00    -0.295 N 
ATOM      4  C   UNL     1     103.277  96.129 119.447  1.00  0.00     0.183 C 
ATOM      5  C   UNL     1     103.690  97.556 119.767  1.00  0.00     0.046 C 
ATOM      6  C   UNL     1     103.976  95.137 120.359  1.00  0.00     0.249 C 
ATOM      7  C   UNL     1     103.362  97.864 121.216  1.00  0.00     0.103 C 
ATOM      8  C   UNL     1     104.030  96.887 122.154  1.00  0.00     0.226 C 
ATOM      9  H   UNL     1     104.703  94.955 122.269  1.00  0.00     0.172 HD
ENDROOT
BRANCH   4  10
ATOM     10  N   UNL     1     103.598  95.792 118.086  1.00  0.00    -0.269 N 
ATOM     11  O   UNL     1     105.919  96.342 118.019  1.00  0.00    -0.274 OA
ATOM     12  C   UNL     1     104.903  95.861 117.554  1.00  0.00     0.234 C 
ATOM     13  C   UNL     1     104.772  95.067 116.286  1.00  0.00     0.104 C 
ATOM     14  C   UNL     1     102.640  95.357 117.145  1.00  0.00     0.234 C 
ATOM     15  C   UNL     1     103.369  95.533 115.845  1.00  0.00     0.104 C 
ATOM     16  C   UNL     1     105.681  94.953 115.048  1.00  0.00     0.063 C 
ATOM     17  O   UNL     1     101.481  95.022 117.302  1.00  0.00    -0.274 OA
ATOM     18  C   UNL     1     103.084  95.005 114.427  1.00  0.00     0.063 C 
ATOM     19  C   UNL     1     105.150  93.623 114.461  1.00  0.00    -0.036 A 
ATOM     20  C   UNL     1     105.322  96.005 113.999  1.00  0.00    -0.036 A 
ATOM     21  C   UNL     1     103.742  93.643 114.199  1.00  0.00    -0.036 A 
ATOM     22  C   UNL     1     103.944  95.993 113.606  1.00  0.00    -0.036 A 
ATOM     23  C   UNL     1     105.900  92.478 114.239  1.00  0.00     0.004 A 
ATOM     24  C   UNL     1     106.216  96.873 113.391  1.00  0.00     0.004 A 
ATOM     25  C   UNL     1     103.103  92.512 113.715  1.00  0.00     0.004 A 
ATOM     26  C   UNL     1     103.479  96.845 112.616  1.00  0.00     0.004 A 
ATOM     27  C   UNL     1     105.246  91.345 113.752  1.00  0.00     0.000 A 
ATOM     28  C   UNL     1     105.741  97.732 112.397  1.00  0.00     0.000 A 
ATOM     29  C   UNL     1     103.864  91.360 113.497  1.00  0.00     0.000 A 
ATOM     30  C   UNL     1     104.389  97.716 112.012  1.00  0.00     0.000 A 
ENDBRANCH   4  10
TORSDOF 1
ENDMDL
MODEL 6
REMARK VINA RESULT:      -7.2     13.930     15.661
REMARK SMILES O=C1CC[C@@H](N2C(=O)[C@@H]3[C@H]4c5ccccc5[C@H](c5ccccc54)[C@H]3C2=O)C(=O)N1
REMARK SMILES IDX 28 1 1 2 29 3 5 4 4 5 27 6 3 7 2 8 6 10 8 11 7 12 9 13 25 14
REMARK SMILES IDX 24 15 10 16 26 17 17 18 23 19 11 20 18 21 16 22 22 23 12 24
REMARK SMILES IDX 19 25 15 26 21 27 13 28 20 29 14 30
REMARK H PARENT 29 9
ROOT
ATOM      1  O   UNL     1     104.146  93.998 120.032  1.00  0.00    -0.272 OA
ATOM      2  O   UNL     1     104.295  97.202 123.335  1.00  0.00    -0.275 OA
ATOM      3  N   UNL     1     104.234  95.635 121.647  1.00  0.00    -0.295 N 
ATOM      4  C   UNL     1     103.256  96.172 119.461  1.00  0.00     0.183 C 
ATOM      5  C   UNL     1     103.692  97.591 119.787  1.00  0.00     0.046 C 
ATOM      6  C   UNL     1     103.939  95.164 120.369  1.00  0.00     0.249 C 
ATOM      7  C   UNL     1     103.370  97.898 121.239  1.00  0.00     0.103 C 
ATOM      8  C   UNL     1     104.023  96.906 122.171  1.00  0.00     0.226 C 
ATOM      9  H   UNL     1     104.664  94.962 122.277  1.00  0.00     0.172 HD
ENDROOT
BRANCH   4  10
ATOM     10  N   UNL     1     103.571  95.836 118.099  1.00  0.00    -0.269 N 
ATOM     11  O   UNL     1     101.439  95.114 117.306  1.00  0.00    -0.274 OA
ATOM     12  C   UNL     1     102.607  95.423 117.155  1.00  0.00     0.234 C 
ATOM     13  C   UNL     1     103.346  95.575 115.858  1.00  0.00     0.104 C 
ATOM     14  C   UNL     1     104.877  95.886 117.567  1.00  0.00     0.234 C 
ATOM     15  C   UNL     1     104.738  95.085 116.306  1.00  0.00     0.104 C 
ATOM     16  C   UNL     1     103.054  95.044 114.441  1.00  0.00     0.063 C 
ATOM     17  O   UNL     1     105.899  96.356 118.035  1.00  0.00    -0.274 OA
ATOM     18  C   UNL     1     105.648  94.946 115.071  1.00  0.00     0.063 C 
ATOM     19  C   UNL     1     103.935  96.011 113.617  1.00  0.00    -0.036 A 
ATOM     20  C   UNL     1     103.686  93.669 114.224  1.00  0.00    -0.036 A 
ATOM     21  C   UNL     1     105.312  95.999 114.014  1.00  0.00    -0.036 A 
ATOM     22  C   UNL     1     105.093  93.624 114.490  1.00  0.00    -0.036 A 
ATOM     23  C   UNL     1     103.488  96.866 112.620  1.00  0.00     0.004 A 
ATOM     24  C   UNL     1     103.028  92.547 113.745  1.00  0.00     0.004 A 
ATOM     25  C   UNL     1     106.224  96.846 113.404  1.00  0.00     0.004 A 
ATOM     26  C   UNL     1     105.822  92.464 114.277  1.00  0.00     0.004 A 
ATOM     27  C   UNL     1     104.416  97.715 112.013  1.00  0.00     0.000 A 
ATOM     28  C   UNL     1     103.767  91.379 113.536  1.00  0.00     0.000 A 
ATOM     29  C   UNL     1     105.767  97.707 112.402  1.00  0.00     0.000 A 
ATOM     30  C   UNL     1     105.147  91.339 113.796  1.00  0.00     0.000 A 
ENDBRANCH   4  10
TORSDOF 1
ENDMDL
MODEL 7
REMARK VINA RESULT:      -7.2      2.657      4.569
REMARK SMILES O=C1CC[C@@H](N2C(=O)[C@@H]3[C@H]4c5ccccc5[C@H](c5ccccc54)[C@H]3C2=O)C(=O)N1
REMARK SMILES IDX 28 1 1 2 29 3 5 4 4 5 27 6 3 7 2 8 6 10 8 11 7 12 9 13 25 14
REMARK SMILES IDX 24 15 10 16 26 17 17 18 23 19 11 20 18 21 16 22 22 23 12 24
REMARK SMILES IDX 19 25 15 26 21 27 13 28 20 29 14 30
REMARK H PARENT 29 9
ROOT
ATOM      1  O   UNL     1     112.436  99.204 119.460  1.00  0.00    -0.272 OA
ATOM      2  O   UNL     1     110.520 103.363 119.933  1.00  0.00    -0.275 OA
ATOM      3  N   UNL     1     111.509 101.291 119.737  1.00  0.00    -0.295 N 
ATOM      4  C   UNL     1     113.936 101.024 119.990  1.00  0.00     0.183 C 
ATOM      5  C   UNL     1     113.818 102.233 120.903  1.00  0.00     0.046 C 
ATOM      6  C   UNL     1     112.578 100.396 119.732  1.00  0.00     0.249 C 
ATOM      7  C   UNL     1     112.887 103.253 120.273  1.00  0.00     0.103 C 
ATOM      8  C   UNL     1     111.528 102.659 119.989  1.00  0.00     0.226 C 
ATOM      9  H   UNL     1     110.596 100.891 119.535  1.00  0.00     0.172 HD
ENDROOT
BRANCH   4  10
ATOM     10  N   UNL     1     114.791 100.022 120.569  1.00  0.00    -0.269 N 
ATOM     11  O   UNL     1     116.235  99.544 118.731  1.00  0.00    -0.274 OA
ATOM     12  C   UNL     1     115.894  99.457 119.896  1.00  0.00     0.234 C 
ATOM     13  C   UNL     1     116.647  98.800 121.016  1.00  0.00     0.104 C 
ATOM     14  C   UNL     1     114.612  99.503 121.869  1.00  0.00     0.234 C 
ATOM     15  C   UNL     1     115.455  98.262 121.834  1.00  0.00     0.104 C 
ATOM     16  C   UNL     1     117.776  97.752 121.018  1.00  0.00     0.063 C 
ATOM     17  O   UNL     1     113.888  99.879 122.773  1.00  0.00    -0.274 OA
ATOM     18  C   UNL     1     115.983  97.347 122.955  1.00  0.00     0.063 C 
ATOM     19  C   UNL     1     118.333  97.976 122.444  1.00  0.00    -0.036 A 
ATOM     20  C   UNL     1     117.213  96.331 121.045  1.00  0.00    -0.036 A 
ATOM     21  C   UNL     1     117.342  97.824 123.468  1.00  0.00    -0.036 A 
ATOM     22  C   UNL     1     116.304  96.082 122.125  1.00  0.00    -0.036 A 
ATOM     23  C   UNL     1     119.634  98.340 122.759  1.00  0.00     0.004 A 
ATOM     24  C   UNL     1     117.565  95.309 120.177  1.00  0.00     0.004 A 
ATOM     25  C   UNL     1     117.671  98.039 124.797  1.00  0.00     0.004 A 
ATOM     26  C   UNL     1     115.760  94.823 122.322  1.00  0.00     0.004 A 
ATOM     27  C   UNL     1     119.952  98.555 124.101  1.00  0.00     0.000 A 
ATOM     28  C   UNL     1     117.010  94.042 120.378  1.00  0.00     0.000 A 
ATOM     29  C   UNL     1     118.982  98.410 125.107  1.00  0.00     0.000 A 
ATOM     30  C   UNL     1     116.120  93.802 121.439  1.00  0.00     0.000 A 
ENDBRANCH   4  10
TORSDOF 1
ENDMDL
MODEL 8
REMARK VINA RESULT:      -7.1     13.581     15.571
REMARK SMILES O=C1CC[C@@H](N2C(=O)[C@@H]3[C@H]4c5ccccc5[C@H](c5ccccc54)[C@H]3C2=O)C(=O)N1
REMARK SMILES IDX 28 1 1 2 29 3 5 4 4 5 27 6 3 7 2 8 6 10 8 11 7 12 9 13 25 14
REMARK SMILES IDX 24 15 10 16 26 17 17 18 23 19 11 20 18 21 16 22 22 23 12 24
REMARK SMILES IDX 19 25 15 26 21 27 13 28 20 29 14 30
REMARK H PARENT 29 9
ROOT
ATOM      1  O   UNL     1     106.100  97.589 112.696  1.00  0.00    -0.272 OA
ATOM      2  O   UNL     1     107.488  93.803 110.474  1.00  0.00    -0.275 OA
ATOM      3  N   UNL     1     106.787  95.670 111.628  1.00  0.00    -0.295 N 
ATOM      4  C   UNL     1     104.869  95.560 113.157  1.00  0.00     0.183 C 
ATOM      5  C   UNL     1     105.287  94.110 113.330  1.00  0.00     0.046 C 
ATOM      6  C   UNL     1     105.975  96.378 112.514  1.00  0.00     0.249 C 
ATOM      7  C   UNL     1     105.647  93.522 111.978  1.00  0.00     0.103 C 
ATOM      8  C   UNL     1     106.736  94.319 111.301  1.00  0.00     0.226 C 
ATOM      9  H   UNL     1     107.513  96.211 111.166  1.00  0.00     0.172 HD
ENDROOT
BRANCH   4  10
ATOM     10  N   UNL     1     104.547  96.159 114.424  1.00  0.00    -0.269 N 
ATOM     11  O   UNL     1     106.297  95.290 115.793  1.00  0.00    -0.274 OA
ATOM     12  C   UNL     1     105.347  96.019 115.578  1.00  0.00     0.234 C 
ATOM     13  C   UNL     1     104.813  97.103 116.469  1.00  0.00     0.104 C 
ATOM     14  C   UNL     1     103.397  96.948 114.642  1.00  0.00     0.234 C 
ATOM     15  C   UNL     1     103.311  96.977 116.140  1.00  0.00     0.104 C 
ATOM     16  C   UNL     1     104.982  97.369 117.977  1.00  0.00     0.063 C 
ATOM     17  O   UNL     1     102.599  97.411 113.848  1.00  0.00    -0.274 OA
ATOM     18  C   UNL     1     102.506  97.867 117.106  1.00  0.00     0.063 C 
ATOM     19  C   UNL     1     104.592  98.865 118.020  1.00  0.00    -0.036 A 
ATOM     20  C   UNL     1     103.893  96.665 118.788  1.00  0.00    -0.036 A 
ATOM     21  C   UNL     1     103.288  99.125 117.484  1.00  0.00    -0.036 A 
ATOM     22  C   UNL     1     102.559  96.983 118.374  1.00  0.00    -0.036 A 
ATOM     23  C   UNL     1     105.398  99.901 118.469  1.00  0.00     0.004 A 
ATOM     24  C   UNL     1     104.110  95.841 119.881  1.00  0.00     0.004 A 
ATOM     25  C   UNL     1     102.810 100.424 117.407  1.00  0.00     0.004 A 
ATOM     26  C   UNL     1     101.463  96.474 119.054  1.00  0.00     0.004 A 
ATOM     27  C   UNL     1     104.905 101.205 118.385  1.00  0.00     0.000 A 
ATOM     28  C   UNL     1     103.002  95.328 120.560  1.00  0.00     0.000 A 
ATOM     29  C   UNL     1     103.628 101.463 117.858  1.00  0.00     0.000 A 
ATOM     30  C   UNL     1     101.694  95.643 120.153  1.00  0.00     0.000 A 
ENDBRANCH   4  10
TORSDOF 1
ENDMDL
MODEL 9
REMARK VINA RESULT:      -7.1     14.351     16.672
REMARK SMILES O=C1CC[C@@H](N2C(=O)[C@@H]3[C@H]4c5ccccc5[C@H](c5ccccc54)[C@H]3C2=O)C(=O)N1
REMARK SMILES IDX 28 1 1 2 29 3 5 4 4 5 27 6 3 7 2 8 6 10 8 11 7 12 9 13 25 14
REMARK SMILES IDX 24 15 10 16 26 17 17 18 23 19 11 20 18 21 16 22 22 23 12 24
REMARK SMILES IDX 19 25 15 26 21 27 13 28 20 29 14 30
REMARK H PARENT 29 9
ROOT
ATOM      1  O   UNL     1     101.576  95.380 117.820  1.00  0.00    -0.272 OA
ATOM      2  O   UNL     1     103.907  96.168 121.711  1.00  0.00    -0.275 OA
ATOM      3  N   UNL     1     102.784  95.760 119.741  1.00  0.00    -0.295 N 
ATOM      4  C   UNL     1     103.723  96.465 117.585  1.00  0.00     0.183 C 
ATOM      5  C   UNL     1     105.061  96.281 118.283  1.00  0.00     0.046 C 
ATOM      6  C   UNL     1     102.603  95.794 118.359  1.00  0.00     0.249 C 
ATOM      7  C   UNL     1     104.983  96.855 119.686  1.00  0.00     0.103 C 
ATOM      8  C   UNL     1     103.869  96.219 120.482  1.00  0.00     0.226 C 
ATOM      9  H   UNL     1     102.028  95.341 120.276  1.00  0.00     0.172 HD
ENDROOT
BRANCH   4  10
ATOM     10  N   UNL     1     103.752  95.907 116.260  1.00  0.00    -0.269 N 
ATOM     11  O   UNL     1     102.738  97.665 115.006  1.00  0.00    -0.274 OA
ATOM     12  C   UNL     1     103.330  96.607 115.111  1.00  0.00     0.234 C 
ATOM     13  C   UNL     1     103.906  95.775 114.002  1.00  0.00     0.104 C 
ATOM     14  C   UNL     1     104.205  94.601 115.975  1.00  0.00     0.234 C 
ATOM     15  C   UNL     1     103.666  94.372 114.594  1.00  0.00     0.104 C 
ATOM     16  C   UNL     1     103.621  95.742 112.488  1.00  0.00     0.063 C 
ATOM     17  O   UNL     1     104.791  93.801 116.682  1.00  0.00    -0.274 OA
ATOM     18  C   UNL     1     103.993  93.310 113.526  1.00  0.00     0.063 C 
ATOM     19  C   UNL     1     104.911  95.043 111.998  1.00  0.00    -0.036 A 
ATOM     20  C   UNL     1     102.500  94.756 112.157  1.00  0.00    -0.036 A 
ATOM     21  C   UNL     1     105.133  93.770 112.617  1.00  0.00    -0.036 A 
ATOM     22  C   UNL     1     102.725  93.429 112.649  1.00  0.00    -0.036 A 
ATOM     23  C   UNL     1     105.825  95.566 111.096  1.00  0.00     0.004 A 
ATOM     24  C   UNL     1     101.378  95.039 111.394  1.00  0.00     0.004 A 
ATOM     25  C   UNL     1     106.272  93.037 112.321  1.00  0.00     0.004 A 
ATOM     26  C   UNL     1     101.830  92.407 112.374  1.00  0.00     0.004 A 
ATOM     27  C   UNL     1     106.968  94.819 110.806  1.00  0.00     0.000 A 
ATOM     28  C   UNL     1     100.478  94.006 111.123  1.00  0.00     0.000 A 
ATOM     29  C   UNL     1     107.190  93.571 111.413  1.00  0.00     0.000 A 
ATOM     30  C   UNL     1     100.702  92.705 111.605  1.00  0.00     0.000 A 
ENDBRANCH   4  10
TORSDOF 1
ENDMDL
MODEL 10
REMARK VINA RESULT:      -7.1     13.604     15.441
REMARK SMILES O=C1CC[C@@H](N2C(=O)[C@@H]3[C@H]4c5ccccc5[C@H](c5ccccc54)[C@H]3C2=O)C(=O)N1
REMARK SMILES IDX 28 1 1 2 29 3 5 4 4 5 27 6 3 7 2 8 6 10 8 11 7 12 9 13 25 14
REMARK SMILES IDX 24 15 10 16 26 17 17 18 23 19 11 20 18 21 16 22 22 23 12 24
REMARK SMILES IDX 19 25 15 26 21 27 13 28 20 29 14 30
REMARK H PARENT 29 9
ROOT
ATOM      1  O   UNL     1     106.082  97.596 112.747  1.00  0.00    -0.272 OA
ATOM      2  O   UNL     1     107.446  93.807 110.515  1.00  0.00    -0.275 OA
ATOM      3  N   UNL     1     106.756  95.675 111.674  1.00  0.00    -0.295 N 
ATOM      4  C   UNL     1     104.828  95.577 113.190  1.00  0.00     0.183 C 
ATOM      5  C   UNL     1     105.231  94.122 113.359  1.00  0.00     0.046 C 
ATOM      6  C   UNL     1     105.946  96.387 112.558  1.00  0.00     0.249 C 
ATOM      7  C   UNL     1     105.593  93.537 112.006  1.00  0.00     0.103 C 
ATOM      8  C   UNL     1     106.695  94.326 111.340  1.00  0.00     0.226 C 
ATOM      9  H   UNL     1     107.491  96.211 111.219  1.00  0.00     0.172 HD
ENDROOT
BRANCH   4  10
ATOM     10  N   UNL     1     104.504  96.174 114.459  1.00  0.00    -0.269 N 
ATOM     11  O   UNL     1     102.541  97.405 113.891  1.00  0.00    -0.274 OA
ATOM     12  C   UNL     1     103.350  96.954 114.680  1.00  0.00     0.234 C 
ATOM     13  C   UNL     1     103.278  96.997 116.179  1.00  0.00     0.104 C 
ATOM     14  C   UNL     1     105.308  96.038 115.610  1.00  0.00     0.234 C 
ATOM     15  C   UNL     1     104.782  97.129 116.495  1.00  0.00     0.104 C 
ATOM     16  C   UNL     1     102.477  97.893 117.143  1.00  0.00     0.063 C 
ATOM     17  O   UNL     1     106.259  95.308 115.824  1.00  0.00    -0.274 OA
ATOM     18  C   UNL     1     104.960  97.408 118.000  1.00  0.00     0.063 C 
ATOM     19  C   UNL     1     102.540  97.020 118.418  1.00  0.00    -0.036 A 
ATOM     20  C   UNL     1     103.259  99.156 117.504  1.00  0.00    -0.036 A 
ATOM     21  C   UNL     1     103.879  96.709 118.825  1.00  0.00    -0.036 A 
ATOM     22  C   UNL     1     104.566  98.903 118.033  1.00  0.00    -0.036 A 
ATOM     23  C   UNL     1     101.449  96.514 119.110  1.00  0.00     0.004 A 
ATOM     24  C   UNL     1     102.777 100.453 117.420  1.00  0.00     0.004 A 
ATOM     25  C   UNL     1     104.105  95.895 119.924  1.00  0.00     0.004 A 
ATOM     26  C   UNL     1     105.372  99.944 118.467  1.00  0.00     0.004 A 
ATOM     27  C   UNL     1     101.690  95.694 120.214  1.00  0.00     0.000 A 
ATOM     28  C   UNL     1     103.595 101.499 117.856  1.00  0.00     0.000 A 
ATOM     29  C   UNL     1     103.002  95.386 120.614  1.00  0.00     0.000 A 
ATOM     30  C   UNL     1     104.876 101.247 118.376  1.00  0.00     0.000 A 
ENDBRANCH   4  10
TORSDOF 1
ENDMDL
MODEL 11
REMARK VINA RESULT:      -7.0     13.511     15.566
REMARK SMILES O=C1CC[C@@H](N2C(=O)[C@@H]3[C@H]4c5ccccc5[C@H](c5ccccc54)[C@H]3C2=O)C(=O)N1
REMARK SMILES IDX 28 1 1 2 29 3 5 4 4 5 27 6 3 7 2 8 6 10 8 11 7 12 9 13 25 14
REMARK SMILES IDX 24 15 10 16 26 17 17 18 23 19 11 20 18 21 16 22 22 23 12 24
REMARK SMILES IDX 19 25 15 26 21 27 13 28 20 29 14 30
REMARK H PARENT 29 9
ROOT
ATOM      1  O   UNL     1     104.268  97.439 119.434  1.00  0.00    -0.272 OA
ATOM      2  O   UNL     1     102.605  96.009 123.482  1.00  0.00    -0.275 OA
ATOM      3  N   UNL     1     103.418  96.683 121.433  1.00  0.00    -0.295 N 
ATOM      4  C   UNL     1     104.475  95.077 119.907  1.00  0.00     0.183 C 
ATOM      5  C   UNL     1     103.558  94.069 120.579  1.00  0.00     0.046 C 
ATOM      6  C   UNL     1     104.033  96.501 120.196  1.00  0.00     0.249 C 
ATOM      7  C   UNL     1     103.548  94.315 122.077  1.00  0.00     0.103 C 
ATOM      8  C   UNL     1     103.125  95.728 122.402  1.00  0.00     0.226 C 
ATOM      9  H   UNL     1     103.144  97.637 121.655  1.00  0.00     0.172 HD
ENDROOT
BRANCH   4  10
ATOM     10  N   UNL     1     104.489  94.892 118.481  1.00  0.00    -0.269 N 
ATOM     11  O   UNL     1     106.807  95.199 118.006  1.00  0.00    -0.274 OA
ATOM     12  C   UNL     1     105.668  94.893 117.706  1.00  0.00     0.234 C 
ATOM     13  C   UNL     1     105.200  94.292 116.413  1.00  0.00     0.104 C 
ATOM     14  C   UNL     1     103.324  94.689 117.712  1.00  0.00     0.234 C 
ATOM     15  C   UNL     1     103.812  94.958 116.318  1.00  0.00     0.104 C 
ATOM     16  C   UNL     1     105.837  94.248 115.011  1.00  0.00     0.063 C 
ATOM     17  O   UNL     1     102.180  94.459 118.062  1.00  0.00    -0.274 OA
ATOM     18  C   UNL     1     103.198  94.655 114.938  1.00  0.00     0.063 C 
ATOM     19  C   UNL     1     105.039  93.072 114.402  1.00  0.00    -0.036 A 
ATOM     20  C   UNL     1     105.427  95.463 114.177  1.00  0.00    -0.036 A 
ATOM     21  C   UNL     1     103.620  93.274 114.434  1.00  0.00    -0.036 A 
ATOM     22  C   UNL     1     104.010  95.648 114.073  1.00  0.00    -0.036 A 
ATOM     23  C   UNL     1     105.579  91.894 113.909  1.00  0.00     0.004 A 
ATOM     24  C   UNL     1     106.295  96.304 113.500  1.00  0.00     0.004 A 
ATOM     25  C   UNL     1     102.762  92.290 113.969  1.00  0.00     0.004 A 
ATOM     26  C   UNL     1     103.480  96.668 113.297  1.00  0.00     0.004 A 
ATOM     27  C   UNL     1     104.704  90.910 113.444  1.00  0.00     0.000 A 
ATOM     28  C   UNL     1     105.755  97.333 112.722  1.00  0.00     0.000 A 
ATOM     29  C   UNL     1     103.313  91.104 113.477  1.00  0.00     0.000 A 
ATOM     30  C   UNL     1     104.365  97.510 112.620  1.00  0.00     0.000 A 
ENDBRANCH   4  10
TORSDOF 1
ENDMDL
MODEL 12
REMARK VINA RESULT:      -6.9     15.094     17.578
REMARK SMILES O=C1CC[C@@H](N2C(=O)[C@@H]3[C@H]4c5ccccc5[C@H](c5ccccc54)[C@H]3C2=O)C(=O)N1
REMARK SMILES IDX 28 1 1 2 29 3 5 4 4 5 27 6 3 7 2 8 6 10 8 11 7 12 9 13 25 14
REMARK SMILES IDX 24 15 10 16 26 17 17 18 23 19 11 20 18 21 16 22 22 23 12 24
REMARK SMILES IDX 19 25 15 26 21 27 13 28 20 29 14 30
REMARK H PARENT 29 9
ROOT
ATOM      1  O   UNL     1     104.429  92.821 118.508  1.00  0.00    -0.272 OA
ATOM      2  O   UNL     1     101.354  92.558 121.924  1.00  0.00    -0.275 OA
ATOM      3  N   UNL     1     102.858  92.715 120.186  1.00  0.00    -0.295 N 
ATOM      4  C   UNL     1     102.147  92.345 117.866  1.00  0.00     0.183 C 
ATOM      5  C   UNL     1     100.803  92.853 118.359  1.00  0.00     0.046 C 
ATOM      6  C   UNL     1     103.255  92.676 118.850  1.00  0.00     0.249 C 
ATOM      7  C   UNL     1     100.496  92.238 119.712  1.00  0.00     0.103 C 
ATOM      8  C   UNL     1     101.584  92.535 120.715  1.00  0.00     0.226 C 
ATOM      9  H   UNL     1     103.595  92.905 120.861  1.00  0.00     0.172 HD
ENDROOT
BRANCH   4  10
ATOM     10  N   UNL     1     102.485  92.931 116.596  1.00  0.00    -0.269 N 
ATOM     11  O   UNL     1     103.138  90.994 115.364  1.00  0.00    -0.274 OA
ATOM     12  C   UNL     1     102.864  92.176 115.466  1.00  0.00     0.234 C 
ATOM     13  C   UNL     1     102.727  93.175 114.355  1.00  0.00     0.104 C 
ATOM     14  C   UNL     1     102.472  94.320 116.352  1.00  0.00     0.234 C 
ATOM     15  C   UNL     1     103.262  94.427 115.080  1.00  0.00     0.104 C 
ATOM     16  C   UNL     1     103.241  93.173 112.903  1.00  0.00     0.063 C 
ATOM     17  O   UNL     1     102.036  95.234 117.029  1.00  0.00    -0.274 OA
ATOM     18  C   UNL     1     103.420  95.572 114.062  1.00  0.00     0.063 C 
ATOM     19  C   UNL     1     102.296  94.235 112.293  1.00  0.00    -0.036 A 
ATOM     20  C   UNL     1     104.633  93.797 112.807  1.00  0.00    -0.036 A 
ATOM     21  C   UNL     1     102.352  95.497 112.971  1.00  0.00    -0.036 A 
ATOM     22  C   UNL     1     104.722  95.115 113.362  1.00  0.00    -0.036 A 
ATOM     23  C   UNL     1     101.423  94.032 111.235  1.00  0.00     0.004 A 
ATOM     24  C   UNL     1     105.732  93.223 112.187  1.00  0.00     0.004 A 
ATOM     25  C   UNL     1     101.530  96.540 112.576  1.00  0.00     0.004 A 
ATOM     26  C   UNL     1     105.903  95.839 113.293  1.00  0.00     0.004 A 
ATOM     27  C   UNL     1     100.599  95.091 110.847  1.00  0.00     0.000 A 
ATOM     28  C   UNL     1     106.921  93.956 112.124  1.00  0.00     0.000 A 
ATOM     29  C   UNL     1     100.649  96.328 111.511  1.00  0.00     0.000 A 
ATOM     30  C   UNL     1     107.004  95.249 112.668  1.00  0.00     0.000 A 
ENDBRANCH   4  10
TORSDOF 1
ENDMDL
MODEL 13
REMARK VINA RESULT:      -6.9     13.775     15.955
REMARK SMILES O=C1CC[C@@H](N2C(=O)[C@@H]3[C@H]4c5ccccc5[C@H](c5ccccc54)[C@H]3C2=O)C(=O)N1
REMARK SMILES IDX 28 1 1 2 29 3 5 4 4 5 27 6 3 7 2 8 6 10 8 11 7 12 9 13 25 14
REMARK SMILES IDX 24 15 10 16 26 17 17 18 23 19 11 20 18 21 16 22 22 23 12 24
REMARK SMILES IDX 19 25 15 26 21 27 13 28 20 29 14 30
REMARK H PARENT 29 9
ROOT
ATOM      1  O   UNL     1     106.345  95.657 118.492  1.00  0.00    -0.272 OA
ATOM      2  O   UNL     1     104.373  97.506 122.218  1.00  0.00    -0.275 OA
ATOM      3  N   UNL     1     105.320  96.597 120.325  1.00  0.00    -0.295 N 
ATOM      4  C   UNL     1     103.953  95.369 118.697  1.00  0.00     0.183 C 
ATOM      5  C   UNL     1     102.836  96.279 119.181  1.00  0.00     0.046 C 
ATOM      6  C   UNL     1     105.313  95.895 119.120  1.00  0.00     0.249 C 
ATOM      7  C   UNL     1     102.900  96.397 120.693  1.00  0.00     0.103 C 
ATOM      8  C   UNL     1     104.245  96.906 121.152  1.00  0.00     0.226 C 
ATOM      9  H   UNL     1     106.229  96.929 120.638  1.00  0.00     0.172 HD
ENDROOT
BRANCH   4  10
ATOM     10  N   UNL     1     103.942  95.255 117.263  1.00  0.00    -0.269 N 
ATOM     11  O   UNL     1     103.962  92.885 116.997  1.00  0.00    -0.274 OA
ATOM     12  C   UNL     1     103.865  94.024 116.580  1.00  0.00     0.234 C 
ATOM     13  C   UNL     1     103.500  94.454 115.189  1.00  0.00     0.104 C 
ATOM     14  C   UNL     1     104.006  96.365 116.394  1.00  0.00     0.234 C 
ATOM     15  C   UNL     1     104.367  95.725 115.086  1.00  0.00     0.104 C 
ATOM     16  C   UNL     1     103.533  93.707 113.842  1.00  0.00     0.063 C 
ATOM     17  O   UNL     1     103.905  97.556 116.631  1.00  0.00    -0.274 OA
ATOM     18  C   UNL     1     104.326  96.250 113.639  1.00  0.00     0.063 C 
ATOM     19  C   UNL     1     102.568  94.601 113.028  1.00  0.00    -0.036 A 
ATOM     20  C   UNL     1     104.886  93.874 113.150  1.00  0.00    -0.036 A 
ATOM     21  C   UNL     1     102.970  95.976 112.988  1.00  0.00    -0.036 A 
ATOM     22  C   UNL     1     105.288  95.238 112.971  1.00  0.00    -0.036 A 
ATOM     23  C   UNL     1     101.392  94.184 112.422  1.00  0.00     0.004 A 
ATOM     24  C   UNL     1     105.668  92.844 112.652  1.00  0.00     0.004 A 
ATOM     25  C   UNL     1     102.186  96.916 112.338  1.00  0.00     0.004 A 
ATOM     26  C   UNL     1     106.460  95.554 112.302  1.00  0.00     0.004 A 
ATOM     27  C   UNL     1     100.610  95.141 111.771  1.00  0.00     0.000 A 
ATOM     28  C   UNL     1     106.851  93.167 111.981  1.00  0.00     0.000 A 
ATOM     29  C   UNL     1     101.000  96.490 111.732  1.00  0.00     0.000 A 
ATOM     30  C   UNL     1     107.241  94.507 111.806  1.00  0.00     0.000 A 
ENDBRANCH   4  10
TORSDOF 1
ENDMDL
MODEL 14
REMARK VINA RESULT:      -6.8     18.162     20.688
REMARK SMILES O=C1CC[C@@H](N2C(=O)[C@@H]3[C@H]4c5ccccc5[C@H](c5ccccc54)[C@H]3C2=O)C(=O)N1
REMARK SMILES IDX 28 1 1 2 29 3 5 4 4 5 27 6 3 7 2 8 6 10 8 11 7 12 9 13 25 14
REMARK SMILES IDX 24 15 10 16 26 17 17 18 23 19 11 20 18 21 16 22 22 23 12 24
REMARK SMILES IDX 19 25 15 26 21 27 13 28 20 29 14 30
REMARK H PARENT 29 9
ROOT
ATOM      1  O   UNL     1     120.873  82.633 110.076  1.00  0.00    -0.272 OA
ATOM      2  O   UNL     1     120.371  85.695 113.478  1.00  0.00    -0.275 OA
ATOM      3  N   UNL     1     120.653  84.196 111.751  1.00  0.00    -0.295 N 
ATOM      4  C   UNL     1     120.607  84.942 109.413  1.00  0.00     0.183 C 
ATOM      5  C   UNL     1     121.126  86.252 109.982  1.00  0.00     0.046 C 
ATOM      6  C   UNL     1     120.753  83.811 110.415  1.00  0.00     0.249 C 
ATOM      7  C   UNL     1     120.369  86.585 111.255  1.00  0.00     0.103 C 
ATOM      8  C   UNL     1     120.481  85.474 112.272  1.00  0.00     0.226 C 
ATOM      9  H   UNL     1     120.718  83.445 112.433  1.00  0.00     0.172 HD
ENDROOT
BRANCH   4  10
ATOM     10  N   UNL     1     121.322  84.580 108.218  1.00  0.00    -0.269 N 
ATOM     11  O   UNL     1     123.557  85.133 108.843  1.00  0.00    -0.274 OA
ATOM     12  C   UNL     1     122.726  84.642 108.102  1.00  0.00     0.234 C 
ATOM     13  C   UNL     1     122.979  83.824 106.869  1.00  0.00     0.104 C 
ATOM     14  C   UNL     1     120.690  84.127 107.041  1.00  0.00     0.234 C 
ATOM     15  C   UNL     1     121.777  84.279 106.018  1.00  0.00     0.104 C 
ATOM     16  C   UNL     1     124.219  83.688 105.964  1.00  0.00     0.063 C 
ATOM     17  O   UNL     1     119.535  83.792 106.847  1.00  0.00    -0.274 OA
ATOM     18  C   UNL     1     121.929  83.724 104.589  1.00  0.00     0.063 C 
ATOM     19  C   UNL     1     123.884  82.347 105.269  1.00  0.00    -0.036 A 
ATOM     20  C   UNL     1     124.197  84.720 104.836  1.00  0.00    -0.036 A 
ATOM     21  C   UNL     1     122.619  82.359 104.595  1.00  0.00    -0.036 A 
ATOM     22  C   UNL     1     123.001  84.698 104.047  1.00  0.00    -0.036 A 
ATOM     23  C   UNL     1     124.662  81.199 105.304  1.00  0.00     0.004 A 
ATOM     24  C   UNL     1     125.235  85.578 104.510  1.00  0.00     0.004 A 
ATOM     25  C   UNL     1     122.152  81.218 103.963  1.00  0.00     0.004 A 
ATOM     26  C   UNL     1     122.858  85.531 102.948  1.00  0.00     0.004 A 
ATOM     27  C   UNL     1     124.180  80.055 104.664  1.00  0.00     0.000 A 
ATOM     28  C   UNL     1     125.084  86.417 103.402  1.00  0.00     0.000 A 
ATOM     29  C   UNL     1     122.939  80.064 104.005  1.00  0.00     0.000 A 
ATOM     30  C   UNL     1     123.911  86.392 102.629  1.00  0.00     0.000 A 
ENDBRANCH   4  10
TORSDOF 1
ENDMDL
MODEL 15
REMARK VINA RESULT:      -6.8      3.019      7.071
REMARK SMILES O=C1CC[C@@H](N2C(=O)[C@@H]3[C@H]4c5ccccc5[C@H](c5ccccc54)[C@H]3C2=O)C(=O)N1
REMARK SMILES IDX 28 1 1 2 29 3 5 4 4 5 27 6 3 7 2 8 6 10 8 11 7 12 9 13 25 14
REMARK SMILES IDX 24 15 10 16 26 17 17 18 23 19 11 20 18 21 16 22 22 23 12 24
REMARK SMILES IDX 19 25 15 26 21 27 13 28 20 29 14 30
REMARK H PARENT 29 9
ROOT
ATOM      1  O   UNL     1     120.360 100.035 119.802  1.00  0.00    -0.272 OA
ATOM      2  O   UNL     1     122.887  96.289 120.686  1.00  0.00    -0.275 OA
ATOM      3  N   UNL     1     121.586  98.146 120.275  1.00  0.00    -0.295 N 
ATOM      4  C   UNL     1     119.161  97.942 119.957  1.00  0.00     0.183 C 
ATOM      5  C   UNL     1     119.299  96.731 120.865  1.00  0.00     0.046 C 
ATOM      6  C   UNL     1     120.394  98.825 120.026  1.00  0.00     0.249 C 
ATOM      7  C   UNL     1     120.529  95.937 120.465  1.00  0.00     0.103 C 
ATOM      8  C   UNL     1     121.775  96.788 120.508  1.00  0.00     0.226 C 
ATOM      9  H   UNL     1     122.426  98.720 120.294  1.00  0.00     0.172 HD
ENDROOT
BRANCH   4  10
ATOM     10  N   UNL     1     118.019  98.735 120.326  1.00  0.00    -0.269 N 
ATOM     11  O   UNL     1     118.403  99.023 122.663  1.00  0.00    -0.274 OA
ATOM     12  C   UNL     1     117.816  99.253 121.622  1.00  0.00     0.234 C 
ATOM     13  C   UNL     1     116.748 100.282 121.390  1.00  0.00     0.104 C 
ATOM     14  C   UNL     1     116.986  99.076 119.427  1.00  0.00     0.234 C 
ATOM     15  C   UNL     1     115.894  99.524 120.354  1.00  0.00     0.104 C 
ATOM     16  C   UNL     1     115.819 101.034 122.361  1.00  0.00     0.063 C 
ATOM     17  O   UNL     1     116.923  98.952 118.218  1.00  0.00    -0.274 OA
ATOM     18  C   UNL     1     114.590 100.306 120.104  1.00  0.00     0.063 C 
ATOM     19  C   UNL     1     115.410 102.222 121.459  1.00  0.00    -0.036 A 
ATOM     20  C   UNL     1     114.519 100.263 122.592  1.00  0.00    -0.036 A 
ATOM     21  C   UNL     1     114.817 101.814 120.220  1.00  0.00    -0.036 A 
ATOM     22  C   UNL     1     113.815  99.930 121.389  1.00  0.00    -0.036 A 
ATOM     23  C   UNL     1     115.620 103.564 121.741  1.00  0.00     0.004 A 
ATOM     24  C   UNL     1     113.979  99.947 123.829  1.00  0.00     0.004 A 
ATOM     25  C   UNL     1     114.439 102.759 119.280  1.00  0.00     0.004 A 
ATOM     26  C   UNL     1     112.587  99.288 121.436  1.00  0.00     0.004 A 
ATOM     27  C   UNL     1     115.236 104.507 120.786  1.00  0.00     0.000 A 
ATOM     28  C   UNL     1     112.742  99.296 123.870  1.00  0.00     0.000 A 
ATOM     29  C   UNL     1     114.656 104.109 119.569  1.00  0.00     0.000 A 
ATOM     30  C   UNL     1     112.054  98.973 122.688  1.00  0.00     0.000 A 
ENDBRANCH   4  10
TORSDOF 1
ENDMDL
