MODEL 1
REMARK VINA RESULT:      -8.6      0.000      0.000
REMARK SMILES O=C1C[C@@](O)(C(F)(F)F)c2c(n[nH]c2C2CCN(c3nc4ccccc4s3)CC2)N1
REMARK SMILES IDX 1 1 13 2 30 3 12 4 14 5 10 6 4 7 11 8 3 9 2 10 15 13 18 14
REMARK SMILES IDX 17 15 28 16 16 17 29 18 19 19 27 20 26 21 20 22 21 23 25 24
REMARK SMILES IDX 22 25 24 26 23 27 5 28 6 30 7 31 8 32 9 33
REMARK H PARENT 13 11 30 12 5 29
ROOT
ATOM      1  O   UNL     1     106.772  95.459 109.985  1.00  0.00    -0.275 OA
ATOM      2  N   UNL     1     106.646  93.436 115.254  1.00  0.00    -0.280 N 
ATOM      3  N   UNL     1     106.926  94.201 111.899  1.00  0.00    -0.309 N 
ATOM      4  N   UNL     1     107.008  93.040 114.020  1.00  0.00    -0.157 NA
ATOM      5  C   UNL     1     106.131  94.699 115.306  1.00  0.00     0.047 A 
ATOM      6  C   UNL     1     106.167  95.163 114.013  1.00  0.00     0.059 A 
ATOM      7  C   UNL     1     105.709  96.431 113.384  1.00  0.00     0.199 C 
ATOM      8  C   UNL     1     106.733  94.107 113.265  1.00  0.00     0.161 A 
ATOM      9  C   UNL     1     106.484  96.642 112.063  1.00  0.00     0.150 C 
ATOM     10  C   UNL     1     106.704  95.384 111.214  1.00  0.00     0.229 C 
ATOM     11  H   UNL     1     106.777  92.786 116.019  1.00  0.00     0.190 HD
ATOM     12  H   UNL     1     107.209  93.361 111.403  1.00  0.00     0.171 HD
ENDROOT
BRANCH   5  13
ATOM     13  C   UNL     1     105.683  95.317 116.617  1.00  0.00     0.041 C 
ATOM     14  N   UNL     1     104.264  95.241 119.122  1.00  0.00    -0.348 N 
ATOM     15  C   UNL     1     105.728  95.164 119.141  1.00  0.00     0.119 C 
ATOM     16  C   UNL     1     103.713  96.060 118.037  1.00  0.00     0.119 C 
ATOM     17  C   UNL     1     106.224  94.540 117.835  1.00  0.00     0.031 C 
ATOM     18  C   UNL     1     104.149  95.463 116.693  1.00  0.00     0.031 C 
BRANCH  14  19
ATOM     19  C   UNL     1     103.466  94.313 119.785  1.00  0.00     0.186 A 
ATOM     20  S   UNL     1     102.973  94.628 121.392  1.00  0.00    -0.097 S 
ATOM     21  C   UNL     1     102.121  93.130 121.415  1.00  0.00     0.056 A 
ATOM     22  N   UNL     1     103.051  93.185 119.256  1.00  0.00    -0.220 NA
ATOM     23  C   UNL     1     102.279  92.495 120.180  1.00  0.00     0.084 A 
ATOM     24  C   UNL     1     101.368  92.557 122.453  1.00  0.00     0.021 A 
ATOM     25  C   UNL     1     101.659  91.243 119.977  1.00  0.00     0.030 A 
ATOM     26  C   UNL     1     100.764  91.317 122.226  1.00  0.00     0.002 A 
ATOM     27  C   UNL     1     100.907  90.668 121.005  1.00  0.00     0.002 A 
ENDBRANCH  14  19
ENDBRANCH   5  13
BRANCH   7  28
ATOM     28  O   UNL     1     105.957  97.557 114.231  1.00  0.00    -0.376 OA
ATOM     29  H   UNL     1     106.918  97.634 114.358  1.00  0.00     0.212 HD
ENDBRANCH   7  28
BRANCH   7  30
ATOM     30  C   UNL     1     104.201  96.396 113.117  1.00  0.00     0.422 C 
ATOM     31  F   UNL     1     103.564  97.158 114.017  1.00  0.00    -0.167 F 
ATOM     32  F   UNL     1     103.944  96.862 111.888  1.00  0.00    -0.167 F 
ATOM     33  F   UNL     1     103.750  95.137 113.213  1.00  0.00    -0.167 F 
ENDBRANCH   7  30
TORSDOF 4
ENDMDL
MODEL 2
REMARK VINA RESULT:      -7.6      4.235      6.232
REMARK SMILES O=C1C[C@@](O)(C(F)(F)F)c2c(n[nH]c2C2CCN(c3nc4ccccc4s3)CC2)N1
REMARK SMILES IDX 1 1 13 2 30 3 12 4 14 5 10 6 4 7 11 8 3 9 2 10 15 13 18 14
REMARK SMILES IDX 17 15 28 16 16 17 29 18 19 19 27 20 26 21 20 22 21 23 25 24
REMARK SMILES IDX 22 25 24 26 23 27 5 28 6 30 7 31 8 32 9 33
REMARK H PARENT 13 11 30 12 5 29
ROOT
ATOM      1  O   UNL     1     107.409  93.272 110.536  1.00  0.00    -0.275 OA
ATOM      2  N   UNL     1     105.620  97.719 113.520  1.00  0.00    -0.280 N 
ATOM      3  N   UNL     1     106.915  95.358 111.358  1.00  0.00    -0.309 N 
ATOM      4  N   UNL     1     106.298  97.459 112.386  1.00  0.00    -0.157 NA
ATOM      5  C   UNL     1     105.235  96.603 114.207  1.00  0.00     0.047 A 
ATOM      6  C   UNL     1     105.689  95.540 113.464  1.00  0.00     0.059 A 
ATOM      7  C   UNL     1     105.647  94.069 113.680  1.00  0.00     0.199 C 
ATOM      8  C   UNL     1     106.320  96.124 112.344  1.00  0.00     0.161 A 
ATOM      9  C   UNL     1     105.788  93.359 112.314  1.00  0.00     0.150 C 
ATOM     10  C   UNL     1     106.803  93.978 111.345  1.00  0.00     0.229 C 
ATOM     11  H   UNL     1     105.458  98.687 113.765  1.00  0.00     0.190 HD
ATOM     12  H   UNL     1     107.468  95.838 110.655  1.00  0.00     0.171 HD
ENDROOT
BRANCH   5  13
ATOM     13  C   UNL     1     104.449  96.704 115.500  1.00  0.00     0.041 C 
ATOM     14  N   UNL     1     103.464  98.160 117.782  1.00  0.00    -0.348 N 
ATOM     15  C   UNL     1     102.524  97.809 116.713  1.00  0.00     0.119 C 
ATOM     16  C   UNL     1     104.536  97.181 117.993  1.00  0.00     0.119 C 
ATOM     17  C   UNL     1     103.276  97.700 115.385  1.00  0.00     0.031 C 
ATOM     18  C   UNL     1     105.352  97.052 116.701  1.00  0.00     0.031 C 
BRANCH  14  19
ATOM     19  C   UNL     1     103.588  99.461 118.260  1.00  0.00     0.186 A 
ATOM     20  S   UNL     1     102.272 100.178 119.086  1.00  0.00    -0.097 S 
ATOM     21  C   UNL     1     103.199 101.616 119.294  1.00  0.00     0.056 A 
ATOM     22  N   UNL     1     104.665 100.198 118.123  1.00  0.00    -0.220 NA
ATOM     23  C   UNL     1     104.457 101.438 118.710  1.00  0.00     0.084 A 
ATOM     24  C   UNL     1     102.838 102.817 119.928  1.00  0.00     0.021 A 
ATOM     25  C   UNL     1     105.386 102.499 118.765  1.00  0.00     0.030 A 
ATOM     26  C   UNL     1     103.777 103.852 119.968  1.00  0.00     0.002 A 
ATOM     27  C   UNL     1     105.034 103.697 119.395  1.00  0.00     0.002 A 
ENDBRANCH  14  19
ENDBRANCH   5  13
BRANCH   7  28
ATOM     28  O   UNL     1     104.410  93.659 114.270  1.00  0.00    -0.376 OA
ATOM     29  H   UNL     1     104.484  92.718 114.506  1.00  0.00     0.212 HD
ENDBRANCH   7  28
BRANCH   7  30
ATOM     30  C   UNL     1     106.764  93.624 114.630  1.00  0.00     0.422 C 
ATOM     31  F   UNL     1     106.666  92.307 114.860  1.00  0.00    -0.167 F 
ATOM     32  F   UNL     1     107.958  93.886 114.083  1.00  0.00    -0.167 F 
ATOM     33  F   UNL     1     106.660  94.280 115.794  1.00  0.00    -0.167 F 
ENDBRANCH   7  30
TORSDOF 4
ENDMDL
MODEL 3
REMARK VINA RESULT:      -7.4      2.710      3.596
REMARK SMILES O=C1C[C@@](O)(C(F)(F)F)c2c(n[nH]c2C2CCN(c3nc4ccccc4s3)CC2)N1
REMARK SMILES IDX 1 1 13 2 30 3 12 4 14 5 10 6 4 7 11 8 3 9 2 10 15 13 18 14
REMARK SMILES IDX 17 15 28 16 16 17 29 18 19 19 27 20 26 21 20 22 21 23 25 24
REMARK SMILES IDX 22 25 24 26 23 27 5 28 6 30 7 31 8 32 9 33
REMARK H PARENT 13 11 30 12 5 29
ROOT
ATOM      1  O   UNL     1     106.869  95.505 110.069  1.00  0.00    -0.275 OA
ATOM      2  N   UNL     1     102.977  95.250 114.151  1.00  0.00    -0.280 N 
ATOM      3  N   UNL     1     105.111  95.852 111.504  1.00  0.00    -0.309 N 
ATOM      4  N   UNL     1     103.317  96.040 113.115  1.00  0.00    -0.157 NA
ATOM      5  C   UNL     1     103.800  94.174 114.325  1.00  0.00     0.047 A 
ATOM      6  C   UNL     1     104.738  94.266 113.325  1.00  0.00     0.059 A 
ATOM      7  C   UNL     1     105.935  93.447 112.988  1.00  0.00     0.199 C 
ATOM      8  C   UNL     1     104.383  95.423 112.599  1.00  0.00     0.161 A 
ATOM      9  C   UNL     1     106.279  93.657 111.496  1.00  0.00     0.150 C 
ATOM     10  C   UNL     1     106.144  95.094 110.978  1.00  0.00     0.229 C 
ATOM     11  H   UNL     1     102.169  95.510 114.702  1.00  0.00     0.190 HD
ATOM     12  H   UNL     1     104.885  96.761 111.112  1.00  0.00     0.171 HD
ENDROOT
BRANCH   5  13
ATOM     13  C   UNL     1     103.561  93.168 115.434  1.00  0.00     0.041 C 
ATOM     14  N   UNL     1     102.911  92.470 118.151  1.00  0.00    -0.348 N 
ATOM     15  C   UNL     1     101.912  92.228 117.105  1.00  0.00     0.119 C 
ATOM     16  C   UNL     1     104.301  92.318 117.710  1.00  0.00     0.119 C 
ATOM     17  C   UNL     1     102.114  93.227 115.964  1.00  0.00     0.031 C 
ATOM     18  C   UNL     1     104.577  93.323 116.585  1.00  0.00     0.031 C 
BRANCH  14  19
ATOM     19  C   UNL     1     102.608  93.174 119.313  1.00  0.00     0.186 A 
ATOM     20  S   UNL     1     101.072  93.909 119.471  1.00  0.00    -0.097 S 
ATOM     21  C   UNL     1     101.520  94.489 121.032  1.00  0.00     0.056 A 
ATOM     22  N   UNL     1     103.434  93.320 120.323  1.00  0.00    -0.220 NA
ATOM     23  C   UNL     1     102.824  94.072 121.317  1.00  0.00     0.084 A 
ATOM     24  C   UNL     1     100.772  95.258 121.938  1.00  0.00     0.021 A 
ATOM     25  C   UNL     1     103.397  94.438 122.554  1.00  0.00     0.030 A 
ATOM     26  C   UNL     1     101.363  95.606 123.156  1.00  0.00     0.002 A 
ATOM     27  C   UNL     1     102.658  95.203 123.461  1.00  0.00     0.002 A 
ENDBRANCH  14  19
ENDBRANCH   5  13
BRANCH   7  28
ATOM     28  O   UNL     1     105.694  92.053 113.199  1.00  0.00    -0.376 OA
ATOM     29  H   UNL     1     106.539  91.582 113.101  1.00  0.00     0.212 HD
ENDBRANCH   7  28
BRANCH   7  30
ATOM     30  C   UNL     1     107.127  93.833 113.869  1.00  0.00     0.422 C 
ATOM     31  F   UNL     1     108.254  93.808 113.144  1.00  0.00    -0.167 F 
ATOM     32  F   UNL     1     106.950  95.066 114.361  1.00  0.00    -0.167 F 
ATOM     33  F   UNL     1     107.241  92.966 114.885  1.00  0.00    -0.167 F 
ENDBRANCH   7  30
TORSDOF 4
ENDMDL
MODEL 4
REMARK VINA RESULT:      -7.4      3.097      5.325
REMARK SMILES O=C1C[C@@](O)(C(F)(F)F)c2c(n[nH]c2C2CCN(c3nc4ccccc4s3)CC2)N1
REMARK SMILES IDX 1 1 13 2 30 3 12 4 14 5 10 6 4 7 11 8 3 9 2 10 15 13 18 14
REMARK SMILES IDX 17 15 28 16 16 17 29 18 19 19 27 20 26 21 20 22 21 23 25 24
REMARK SMILES IDX 22 25 24 26 23 27 5 28 6 30 7 31 8 32 9 33
REMARK H PARENT 13 11 30 12 5 29
ROOT
ATOM      1  O   UNL     1     106.546  95.775 110.111  1.00  0.00    -0.275 OA
ATOM      2  N   UNL     1     104.981  92.962 114.749  1.00  0.00    -0.280 N 
ATOM      3  N   UNL     1     105.998  94.203 111.691  1.00  0.00    -0.309 N 
ATOM      4  N   UNL     1     105.382  92.707 113.489  1.00  0.00    -0.157 NA
ATOM      5  C   UNL     1     104.894  94.291 115.047  1.00  0.00     0.047 A 
ATOM      6  C   UNL     1     105.272  94.949 113.902  1.00  0.00     0.059 A 
ATOM      7  C   UNL     1     105.344  96.393 113.546  1.00  0.00     0.199 C 
ATOM      8  C   UNL     1     105.580  93.925 112.980  1.00  0.00     0.161 A 
ATOM      9  C   UNL     1     106.337  96.569 112.374  1.00  0.00     0.150 C 
ATOM     10  C   UNL     1     106.272  95.497 111.280  1.00  0.00     0.229 C 
ATOM     11  H   UNL     1     104.780  92.175 115.352  1.00  0.00     0.190 HD
ATOM     12  H   UNL     1     106.070  93.428 111.040  1.00  0.00     0.171 HD
ENDROOT
BRANCH   5  13
ATOM     13  C   UNL     1     104.472  94.766 116.425  1.00  0.00     0.041 C 
ATOM     14  N   UNL     1     104.121  96.809 118.424  1.00  0.00    -0.348 N 
ATOM     15  C   UNL     1     102.933  96.269 117.755  1.00  0.00     0.119 C 
ATOM     16  C   UNL     1     105.208  95.841 118.604  1.00  0.00     0.119 C 
ATOM     17  C   UNL     1     103.313  95.781 116.355  1.00  0.00     0.031 C 
ATOM     18  C   UNL     1     105.659  95.338 117.228  1.00  0.00     0.031 C 
BRANCH  14  19
ATOM     19  C   UNL     1     104.368  98.176 118.503  1.00  0.00     0.186 A 
ATOM     20  S   UNL     1     103.247  99.270 117.815  1.00  0.00    -0.097 S 
ATOM     21  C   UNL     1     104.238 100.588 118.320  1.00  0.00     0.056 A 
ATOM     22  N   UNL     1     105.422  98.703 119.080  1.00  0.00    -0.220 NA
ATOM     23  C   UNL     1     105.362 100.086 118.983  1.00  0.00     0.084 A 
ATOM     24  C   UNL     1     104.035 101.966 118.141  1.00  0.00     0.021 A 
ATOM     25  C   UNL     1     106.316 100.998 119.485  1.00  0.00     0.030 A 
ATOM     26  C   UNL     1     104.995 102.847 118.648  1.00  0.00     0.002 A 
ATOM     27  C   UNL     1     106.120 102.371 119.311  1.00  0.00     0.002 A 
ENDBRANCH  14  19
ENDBRANCH   5  13
BRANCH   7  28
ATOM     28  O   UNL     1     105.806  97.183 114.646  1.00  0.00    -0.376 OA
ATOM     29  H   UNL     1     106.646  97.599 114.387  1.00  0.00     0.212 HD
ENDBRANCH   7  28
BRANCH   7  30
ATOM     30  C   UNL     1     103.963  96.930 113.159  1.00  0.00     0.422 C 
ATOM     31  F   UNL     1     103.122  95.908 112.946  1.00  0.00    -0.167 F 
ATOM     32  F   UNL     1     103.479  97.696 114.146  1.00  0.00    -0.167 F 
ATOM     33  F   UNL     1     104.055  97.661 112.040  1.00  0.00    -0.167 F 
ENDBRANCH   7  30
TORSDOF 4
ENDMDL
MODEL 5
REMARK VINA RESULT:      -7.4     12.154     13.639
REMARK SMILES O=C1C[C@@](O)(C(F)(F)F)c2c(n[nH]c2C2CCN(c3nc4ccccc4s3)CC2)N1
REMARK SMILES IDX 1 1 13 2 30 3 12 4 14 5 10 6 4 7 11 8 3 9 2 10 15 13 18 14
REMARK SMILES IDX 17 15 28 16 16 17 29 18 19 19 27 20 26 21 20 22 21 23 25 24
REMARK SMILES IDX 22 25 24 26 23 27 5 28 6 30 7 31 8 32 9 33
REMARK H PARENT 13 11 30 12 5 29
ROOT
ATOM      1  O   UNL     1     120.633  96.622 118.733  1.00  0.00    -0.275 OA
ATOM      2  N   UNL     1     119.556  97.380 124.223  1.00  0.00    -0.280 N 
ATOM      3  N   UNL     1     120.726  96.972 121.000  1.00  0.00    -0.309 N 
ATOM      4  N   UNL     1     120.612  97.328 123.390  1.00  0.00    -0.157 NA
ATOM      5  C   UNL     1     118.352  97.180 123.611  1.00  0.00     0.047 A 
ATOM      6  C   UNL     1     118.645  96.992 122.281  1.00  0.00     0.059 A 
ATOM      7  C   UNL     1     117.799  96.677 121.098  1.00  0.00     0.199 C 
ATOM      8  C   UNL     1     120.049  97.111 122.199  1.00  0.00     0.161 A 
ATOM      9  C   UNL     1     118.543  97.124 119.819  1.00  0.00     0.150 C 
ATOM     10  C   UNL     1     120.052  96.848 119.797  1.00  0.00     0.229 C 
ATOM     11  H   UNL     1     119.733  97.554 125.205  1.00  0.00     0.190 HD
ATOM     12  H   UNL     1     121.740  96.934 121.031  1.00  0.00     0.171 HD
ENDROOT
BRANCH   5  13
ATOM     13  C   UNL     1     117.053  97.218 124.391  1.00  0.00     0.041 C 
ATOM     14  N   UNL     1     114.182  97.077 124.578  1.00  0.00    -0.348 N 
ATOM     15  C   UNL     1     114.975  95.954 125.086  1.00  0.00     0.119 C 
ATOM     16  C   UNL     1     114.823  98.388 124.725  1.00  0.00     0.119 C 
ATOM     17  C   UNL     1     116.298  95.874 124.321  1.00  0.00     0.031 C 
ATOM     18  C   UNL     1     116.145  98.384 123.947  1.00  0.00     0.031 C 
BRANCH  14  19
ATOM     19  C   UNL     1     113.135  96.897 123.679  1.00  0.00     0.186 A 
ATOM     20  S   UNL     1     111.862  98.039 123.636  1.00  0.00    -0.097 S 
ATOM     21  C   UNL     1     111.102  97.130 122.384  1.00  0.00     0.056 A 
ATOM     22  N   UNL     1     113.048  95.892 122.840  1.00  0.00    -0.220 NA
ATOM     23  C   UNL     1     111.886  96.011 122.090  1.00  0.00     0.084 A 
ATOM     24  C   UNL     1     109.897  97.389 121.710  1.00  0.00     0.021 A 
ATOM     25  C   UNL     1     111.449  95.121 121.086  1.00  0.00     0.030 A 
ATOM     26  C   UNL     1     109.486  96.492 120.720  1.00  0.00     0.002 A 
ATOM     27  C   UNL     1     110.251  95.373 120.411  1.00  0.00     0.002 A 
ENDBRANCH  14  19
ENDBRANCH   5  13
BRANCH   7  28
ATOM     28  O   UNL     1     116.546  97.366 121.149  1.00  0.00    -0.376 OA
ATOM     29  H   UNL     1     115.971  97.000 120.455  1.00  0.00     0.212 HD
ENDBRANCH   7  28
BRANCH   7  30
ATOM     30  C   UNL     1     117.483  95.179 121.035  1.00  0.00     0.422 C 
ATOM     31  F   UNL     1     116.265  94.951 121.547  1.00  0.00    -0.167 F 
ATOM     32  F   UNL     1     117.509  94.761 119.762  1.00  0.00    -0.167 F 
ATOM     33  F   UNL     1     118.390  94.492 121.742  1.00  0.00    -0.167 F 
ENDBRANCH   7  30
TORSDOF 4
ENDMDL
MODEL 6
REMARK VINA RESULT:      -7.4     12.560     14.072
REMARK SMILES O=C1C[C@@](O)(C(F)(F)F)c2c(n[nH]c2C2CCN(c3nc4ccccc4s3)CC2)N1
REMARK SMILES IDX 1 1 13 2 30 3 12 4 14 5 10 6 4 7 11 8 3 9 2 10 15 13 18 14
REMARK SMILES IDX 17 15 28 16 16 17 29 18 19 19 27 20 26 21 20 22 21 23 25 24
REMARK SMILES IDX 22 25 24 26 23 27 5 28 6 30 7 31 8 32 9 33
REMARK H PARENT 13 11 30 12 5 29
ROOT
ATOM      1  O   UNL     1     122.567  97.059 120.392  1.00  0.00    -0.275 OA
ATOM      2  N   UNL     1     117.130  95.538 120.356  1.00  0.00    -0.280 N 
ATOM      3  N   UNL     1     120.422  96.446 119.848  1.00  0.00    -0.309 N 
ATOM      4  N   UNL     1     118.122  95.793 119.483  1.00  0.00    -0.157 NA
ATOM      5  C   UNL     1     117.486  95.693 121.665  1.00  0.00     0.047 A 
ATOM      6  C   UNL     1     118.807  96.069 121.643  1.00  0.00     0.059 A 
ATOM      7  C   UNL     1     119.767  96.443 122.717  1.00  0.00     0.199 C 
ATOM      8  C   UNL     1     119.153  96.097 120.274  1.00  0.00     0.161 A 
ATOM      9  C   UNL     1     121.207  96.229 122.197  1.00  0.00     0.150 C 
ATOM     10  C   UNL     1     121.458  96.650 120.744  1.00  0.00     0.229 C 
ATOM     11  H   UNL     1     116.229  95.264 119.985  1.00  0.00     0.190 HD
ATOM     12  H   UNL     1     120.567  96.578 118.852  1.00  0.00     0.171 HD
ENDROOT
BRANCH   5  13
ATOM     13  C   UNL     1     116.500  95.435 122.788  1.00  0.00     0.041 C 
ATOM     14  N   UNL     1     113.930  95.745 124.051  1.00  0.00    -0.348 N 
ATOM     15  C   UNL     1     114.263  94.454 123.441  1.00  0.00     0.119 C 
ATOM     16  C   UNL     1     115.076  96.458 124.625  1.00  0.00     0.119 C 
ATOM     17  C   UNL     1     115.255  94.668 122.296  1.00  0.00     0.031 C 
ATOM     18  C   UNL     1     116.096  96.735 123.514  1.00  0.00     0.031 C 
BRANCH  14  19
ATOM     19  C   UNL     1     112.751  96.421 123.752  1.00  0.00     0.186 A 
ATOM     20  S   UNL     1     111.971  97.325 124.978  1.00  0.00    -0.097 S 
ATOM     21  C   UNL     1     110.742  97.770 123.854  1.00  0.00     0.056 A 
ATOM     22  N   UNL     1     112.177  96.419 122.572  1.00  0.00    -0.220 NA
ATOM     23  C   UNL     1     111.023  97.188 122.615  1.00  0.00     0.084 A 
ATOM     24  C   UNL     1     109.609  98.576 124.056  1.00  0.00     0.021 A 
ATOM     25  C   UNL     1     110.139  97.423 121.539  1.00  0.00     0.030 A 
ATOM     26  C   UNL     1     108.750  98.792 122.974  1.00  0.00     0.002 A 
ATOM     27  C   UNL     1     109.010  98.225 121.733  1.00  0.00     0.002 A 
ENDBRANCH  14  19
ENDBRANCH   5  13
BRANCH   7  28
ATOM     28  O   UNL     1     119.589  95.634 123.884  1.00  0.00    -0.376 OA
ATOM     29  H   UNL     1     120.465  95.329 124.177  1.00  0.00     0.212 HD
ENDBRANCH   7  28
BRANCH   7  30
ATOM     30  C   UNL     1     119.567  97.899 123.148  1.00  0.00     0.422 C 
ATOM     31  F   UNL     1     119.067  98.609 122.127  1.00  0.00    -0.167 F 
ATOM     32  F   UNL     1     118.715  97.956 124.180  1.00  0.00    -0.167 F 
ATOM     33  F   UNL     1     120.740  98.430 123.517  1.00  0.00    -0.167 F 
ENDBRANCH   7  30
TORSDOF 4
ENDMDL
MODEL 7
REMARK VINA RESULT:      -7.3      3.459      4.800
REMARK SMILES O=C1C[C@@](O)(C(F)(F)F)c2c(n[nH]c2C2CCN(c3nc4ccccc4s3)CC2)N1
REMARK SMILES IDX 1 1 13 2 30 3 12 4 14 5 10 6 4 7 11 8 3 9 2 10 15 13 18 14
REMARK SMILES IDX 17 15 28 16 16 17 29 18 19 19 27 20 26 21 20 22 21 23 25 24
REMARK SMILES IDX 22 25 24 26 23 27 5 28 6 30 7 31 8 32 9 33
REMARK H PARENT 13 11 30 12 5 29
ROOT
ATOM      1  O   UNL     1     107.244  94.630 109.779  1.00  0.00    -0.275 OA
ATOM      2  N   UNL     1     105.607  97.366 114.438  1.00  0.00    -0.280 N 
ATOM      3  N   UNL     1     106.733  96.173 111.399  1.00  0.00    -0.309 N 
ATOM      4  N   UNL     1     106.129  97.638 113.228  1.00  0.00    -0.157 NA
ATOM      5  C   UNL     1     105.404  96.036 114.671  1.00  0.00     0.047 A 
ATOM      6  C   UNL     1     105.816  95.396 113.527  1.00  0.00     0.059 A 
ATOM      7  C   UNL     1     105.908  93.959 113.153  1.00  0.00     0.199 C 
ATOM      8  C   UNL     1     106.236  96.432 112.664  1.00  0.00     0.161 A 
ATOM      9  C   UNL     1     105.897  93.842 111.612  1.00  0.00     0.150 C 
ATOM     10  C   UNL     1     106.715  94.898 110.859  1.00  0.00     0.229 C 
ATOM     11  H   UNL     1     105.417  98.142 115.059  1.00  0.00     0.190 HD
ATOM     12  H   UNL     1     107.143  96.947 110.885  1.00  0.00     0.171 HD
ENDROOT
BRANCH   5  13
ATOM     13  C   UNL     1     104.809  95.544 115.977  1.00  0.00     0.041 C 
ATOM     14  N   UNL     1     104.370  95.742 118.816  1.00  0.00    -0.348 N 
ATOM     15  C   UNL     1     103.261  96.057 117.910  1.00  0.00     0.119 C 
ATOM     16  C   UNL     1     105.278  94.700 118.326  1.00  0.00     0.119 C 
ATOM     17  C   UNL     1     103.817  96.562 116.577  1.00  0.00     0.031 C 
ATOM     18  C   UNL     1     105.898  95.164 117.002  1.00  0.00     0.031 C 
BRANCH  14  19
ATOM     19  C   UNL     1     104.769  96.613 119.826  1.00  0.00     0.186 A 
ATOM     20  S   UNL     1     103.694  96.953 121.112  1.00  0.00    -0.097 S 
ATOM     21  C   UNL     1     104.876  97.995 121.812  1.00  0.00     0.056 A 
ATOM     22  N   UNL     1     105.939  97.207 119.868  1.00  0.00    -0.220 NA
ATOM     23  C   UNL     1     106.015  98.004 121.001  1.00  0.00     0.084 A 
ATOM     24  C   UNL     1     104.800  98.751 122.993  1.00  0.00     0.021 A 
ATOM     25  C   UNL     1     107.116  98.797 121.388  1.00  0.00     0.030 A 
ATOM     26  C   UNL     1     105.904  99.528 123.354  1.00  0.00     0.002 A 
ATOM     27  C   UNL     1     107.048  99.552 122.564  1.00  0.00     0.002 A 
ENDBRANCH  14  19
ENDBRANCH   5  13
BRANCH   7  28
ATOM     28  O   UNL     1     104.801  93.211 113.665  1.00  0.00    -0.376 OA
ATOM     29  H   UNL     1     104.880  93.179 114.634  1.00  0.00     0.212 HD
ENDBRANCH   7  28
BRANCH   7  30
ATOM     30  C   UNL     1     107.179  93.324 113.727  1.00  0.00     0.422 C 
ATOM     31  F   UNL     1     107.694  94.119 114.675  1.00  0.00    -0.167 F 
ATOM     32  F   UNL     1     106.890  92.132 114.264  1.00  0.00    -0.167 F 
ATOM     33  F   UNL     1     108.086  93.160 112.754  1.00  0.00    -0.167 F 
ENDBRANCH   7  30
TORSDOF 4
ENDMDL
MODEL 8
REMARK VINA RESULT:      -7.1      2.680      4.759
REMARK SMILES O=C1C[C@@](O)(C(F)(F)F)c2c(n[nH]c2C2CCN(c3nc4ccccc4s3)CC2)N1
REMARK SMILES IDX 1 1 13 2 30 3 12 4 14 5 10 6 4 7 11 8 3 9 2 10 15 13 18 14
REMARK SMILES IDX 17 15 28 16 16 17 29 18 19 19 27 20 26 21 20 22 21 23 25 24
REMARK SMILES IDX 22 25 24 26 23 27 5 28 6 30 7 31 8 32 9 33
REMARK H PARENT 13 11 30 12 5 29
ROOT
ATOM      1  O   UNL     1     106.642  95.568 110.097  1.00  0.00    -0.275 OA
ATOM      2  N   UNL     1     106.025  92.673 114.904  1.00  0.00    -0.280 N 
ATOM      3  N   UNL     1     106.582  93.987 111.759  1.00  0.00    -0.309 N 
ATOM      4  N   UNL     1     106.442  92.471 113.640  1.00  0.00    -0.157 NA
ATOM      5  C   UNL     1     105.595  93.944 115.153  1.00  0.00     0.047 A 
ATOM      6  C   UNL     1     105.749  94.622 113.968  1.00  0.00     0.059 A 
ATOM      7  C   UNL     1     105.422  96.013 113.552  1.00  0.00     0.199 C 
ATOM      8  C   UNL     1     106.291  93.672 113.075  1.00  0.00     0.161 A 
ATOM      9  C   UNL     1     106.296  96.389 112.334  1.00  0.00     0.150 C 
ATOM     10  C   UNL     1     106.487  95.285 111.286  1.00  0.00     0.229 C 
ATOM     11  H   UNL     1     106.060  91.891 115.546  1.00  0.00     0.190 HD
ATOM     12  H   UNL     1     106.839  93.227 111.137  1.00  0.00     0.171 HD
ENDROOT
BRANCH   5  13
ATOM     13  C   UNL     1     105.104  94.357 116.527  1.00  0.00     0.041 C 
ATOM     14  N   UNL     1     104.106  96.301 118.404  1.00  0.00    -0.348 N 
ATOM     15  C   UNL     1     103.183  95.286 117.885  1.00  0.00     0.119 C 
ATOM     16  C   UNL     1     105.491  95.843 118.550  1.00  0.00     0.119 C 
ATOM     17  C   UNL     1     103.640  94.842 116.494  1.00  0.00     0.031 C 
ATOM     18  C   UNL     1     106.021  95.415 117.176  1.00  0.00     0.031 C 
BRANCH  14  19
ATOM     19  C   UNL     1     103.808  97.660 118.364  1.00  0.00     0.186 A 
ATOM     20  S   UNL     1     104.739  98.748 119.301  1.00  0.00    -0.097 S 
ATOM     21  C   UNL     1     103.785 100.057 118.709  1.00  0.00     0.056 A 
ATOM     22  N   UNL     1     102.845  98.183 117.644  1.00  0.00    -0.220 NA
ATOM     23  C   UNL     1     102.818  99.558 117.832  1.00  0.00     0.084 A 
ATOM     24  C   UNL     1     103.886 101.427 119.002  1.00  0.00     0.021 A 
ATOM     25  C   UNL     1     101.921 100.464 117.226  1.00  0.00     0.030 A 
ATOM     26  C   UNL     1     102.986 102.302 118.388  1.00  0.00     0.002 A 
ATOM     27  C   UNL     1     102.016 101.829 117.512  1.00  0.00     0.002 A 
ENDBRANCH  14  19
ENDBRANCH   5  13
BRANCH   7  28
ATOM     28  O   UNL     1     105.689  96.951 114.599  1.00  0.00    -0.376 OA
ATOM     29  H   UNL     1     106.094  96.469 115.341  1.00  0.00     0.212 HD
ENDBRANCH   7  28
BRANCH   7  30
ATOM     30  C   UNL     1     103.936  96.144 113.203  1.00  0.00     0.422 C 
ATOM     31  F   UNL     1     103.306  96.844 114.157  1.00  0.00    -0.167 F 
ATOM     32  F   UNL     1     103.798  96.777 112.031  1.00  0.00    -0.167 F 
ATOM     33  F   UNL     1     103.380  94.928 113.114  1.00  0.00    -0.167 F 
ENDBRANCH   7  30
TORSDOF 4
ENDMDL
MODEL 9
REMARK VINA RESULT:      -7.0      4.618      8.966
REMARK SMILES O=C1C[C@@](O)(C(F)(F)F)c2c(n[nH]c2C2CCN(c3nc4ccccc4s3)CC2)N1
REMARK SMILES IDX 1 1 13 2 30 3 12 4 14 5 10 6 4 7 11 8 3 9 2 10 15 13 18 14
REMARK SMILES IDX 17 15 28 16 16 17 29 18 19 19 27 20 26 21 20 22 21 23 25 24
REMARK SMILES IDX 22 25 24 26 23 27 5 28 6 30 7 31 8 32 9 33
REMARK H PARENT 13 11 30 12 5 29
ROOT
ATOM      1  O   UNL     1     101.401  96.923 124.456  1.00  0.00    -0.275 OA
ATOM      2  N   UNL     1     103.958  97.002 119.422  1.00  0.00    -0.280 N 
ATOM      3  N   UNL     1     102.248  97.452 122.389  1.00  0.00    -0.309 N 
ATOM      4  N   UNL     1     103.224  97.815 120.205  1.00  0.00    -0.157 NA
ATOM      5  C   UNL     1     104.166  95.760 119.950  1.00  0.00     0.047 A 
ATOM      6  C   UNL     1     103.529  95.767 121.167  1.00  0.00     0.059 A 
ATOM      7  C   UNL     1     103.331  94.722 122.208  1.00  0.00     0.199 C 
ATOM      8  C   UNL     1     102.981  97.063 121.282  1.00  0.00     0.161 A 
ATOM      9  C   UNL     1     103.048  95.412 123.562  1.00  0.00     0.150 C 
ATOM     10  C   UNL     1     102.131  96.639 123.504  1.00  0.00     0.229 C 
ATOM     11  H   UNL     1     104.282  97.362 118.534  1.00  0.00     0.190 HD
ATOM     12  H   UNL     1     101.769  98.346 122.348  1.00  0.00     0.171 HD
ENDROOT
BRANCH   5  13
ATOM     13  C   UNL     1     104.984  94.716 119.214  1.00  0.00     0.041 C 
ATOM     14  N   UNL     1     106.211  93.642 116.840  1.00  0.00    -0.348 N 
ATOM     15  C   UNL     1     107.070  94.241 117.865  1.00  0.00     0.119 C 
ATOM     16  C   UNL     1     105.015  92.976 117.364  1.00  0.00     0.119 C 
ATOM     17  C   UNL     1     106.285  95.307 118.632  1.00  0.00     0.031 C 
ATOM     18  C   UNL     1     104.163  94.005 118.118  1.00  0.00     0.031 C 
BRANCH  14  19
ATOM     19  C   UNL     1     106.285  94.018 115.502  1.00  0.00     0.186 A 
ATOM     20  S   UNL     1     106.620  92.832 114.316  1.00  0.00    -0.097 S 
ATOM     21  C   UNL     1     106.532  94.043 113.092  1.00  0.00     0.056 A 
ATOM     22  N   UNL     1     106.111  95.245 115.069  1.00  0.00    -0.220 NA
ATOM     23  C   UNL     1     106.250  95.275 113.689  1.00  0.00     0.084 A 
ATOM     24  C   UNL     1     106.702  93.912 111.704  1.00  0.00     0.021 A 
ATOM     25  C   UNL     1     106.133  96.416 112.866  1.00  0.00     0.030 A 
ATOM     26  C   UNL     1     106.581  95.057 110.912  1.00  0.00     0.002 A 
ATOM     27  C   UNL     1     106.300  96.293 111.483  1.00  0.00     0.002 A 
ENDBRANCH  14  19
ENDBRANCH   5  13
BRANCH   7  28
ATOM     28  O   UNL     1     104.496  93.904 122.359  1.00  0.00    -0.376 OA
ATOM     29  H   UNL     1     104.398  93.129 121.778  1.00  0.00     0.212 HD
ENDBRANCH   7  28
BRANCH   7  30
ATOM     30  C   UNL     1     102.176  93.789 121.833  1.00  0.00     0.422 C 
ATOM     31  F   UNL     1     102.600  92.872 120.952  1.00  0.00    -0.167 F 
ATOM     32  F   UNL     1     101.719  93.167 122.928  1.00  0.00    -0.167 F 
ATOM     33  F   UNL     1     101.180  94.497 121.282  1.00  0.00    -0.167 F 
ENDBRANCH   7  30
TORSDOF 4
ENDMDL
MODEL 10
REMARK VINA RESULT:      -7.0     11.712     14.345
REMARK SMILES O=C1C[C@@](O)(C(F)(F)F)c2c(n[nH]c2C2CCN(c3nc4ccccc4s3)CC2)N1
REMARK SMILES IDX 1 1 13 2 30 3 12 4 14 5 10 6 4 7 11 8 3 9 2 10 15 13 18 14
REMARK SMILES IDX 17 15 28 16 16 17 29 18 19 19 27 20 26 21 20 22 21 23 25 24
REMARK SMILES IDX 22 25 24 26 23 27 5 28 6 30 7 31 8 32 9 33
REMARK H PARENT 13 11 30 12 5 29
ROOT
ATOM      1  O   UNL     1     108.179  97.697 121.145  1.00  0.00    -0.275 OA
ATOM      2  N   UNL     1     113.244  95.287 121.781  1.00  0.00    -0.280 N 
ATOM      3  N   UNL     1     110.021  96.329 121.108  1.00  0.00    -0.309 N 
ATOM      4  N   UNL     1     112.063  95.033 121.188  1.00  0.00    -0.157 NA
ATOM      5  C   UNL     1     113.281  96.467 122.466  1.00  0.00     0.047 A 
ATOM      6  C   UNL     1     112.038  97.027 122.301  1.00  0.00     0.059 A 
ATOM      7  C   UNL     1     111.413  98.270 122.828  1.00  0.00     0.199 C 
ATOM      8  C   UNL     1     111.333  96.110 121.489  1.00  0.00     0.161 A 
ATOM      9  C   UNL     1     110.245  98.675 121.900  1.00  0.00     0.150 C 
ATOM     10  C   UNL     1     109.375  97.522 121.385  1.00  0.00     0.229 C 
ATOM     11  H   UNL     1     113.984  94.604 121.679  1.00  0.00     0.190 HD
ATOM     12  H   UNL     1     109.532  95.572 120.643  1.00  0.00     0.171 HD
ENDROOT
BRANCH   5  13
ATOM     13  C   UNL     1     114.536  96.924 123.186  1.00  0.00     0.041 C 
ATOM     14  N   UNL     1     117.385  97.315 123.351  1.00  0.00    -0.348 N 
ATOM     15  C   UNL     1     116.524  98.487 123.166  1.00  0.00     0.119 C 
ATOM     16  C   UNL     1     116.785  96.241 124.149  1.00  0.00     0.119 C 
ATOM     17  C   UNL     1     115.244  98.073 122.438  1.00  0.00     0.031 C 
ATOM     18  C   UNL     1     115.509  95.756 123.450  1.00  0.00     0.031 C 
BRANCH  14  19
ATOM     19  C   UNL     1     118.473  97.059 122.522  1.00  0.00     0.186 A 
ATOM     20  S   UNL     1     118.260  97.094 120.825  1.00  0.00    -0.097 S 
ATOM     21  C   UNL     1     119.928  96.711 120.617  1.00  0.00     0.056 A 
ATOM     22  N   UNL     1     119.682  96.787 122.954  1.00  0.00    -0.220 NA
ATOM     23  C   UNL     1     120.528  96.584 121.873  1.00  0.00     0.084 A 
ATOM     24  C   UNL     1     120.653  96.534 119.427  1.00  0.00     0.021 A 
ATOM     25  C   UNL     1     121.903  96.270 121.940  1.00  0.00     0.030 A 
ATOM     26  C   UNL     1     122.013  96.224 119.521  1.00  0.00     0.002 A 
ATOM     27  C   UNL     1     122.631  96.094 120.759  1.00  0.00     0.002 A 
ENDBRANCH  14  19
ENDBRANCH   5  13
BRANCH   7  28
ATOM     28  O   UNL     1     112.348  99.352 122.866  1.00  0.00    -0.376 OA
ATOM     29  H   UNL     1     113.125  99.099 122.337  1.00  0.00     0.212 HD
ENDBRANCH   7  28
BRANCH   7  30
ATOM     30  C   UNL     1     110.910  98.064 124.260  1.00  0.00     0.422 C 
ATOM     31  F   UNL     1     109.578  98.212 124.299  1.00  0.00    -0.167 F 
ATOM     32  F   UNL     1     111.227  96.833 124.682  1.00  0.00    -0.167 F 
ATOM     33  F   UNL     1     111.474  98.966 125.075  1.00  0.00    -0.167 F 
ENDBRANCH   7  30
TORSDOF 4
ENDMDL
MODEL 11
REMARK VINA RESULT:      -7.0      2.937      4.032
REMARK SMILES O=C1C[C@@](O)(C(F)(F)F)c2c(n[nH]c2C2CCN(c3nc4ccccc4s3)CC2)N1
REMARK SMILES IDX 1 1 13 2 30 3 12 4 14 5 10 6 4 7 11 8 3 9 2 10 15 13 18 14
REMARK SMILES IDX 17 15 28 16 16 17 29 18 19 19 27 20 26 21 20 22 21 23 25 24
REMARK SMILES IDX 22 25 24 26 23 27 5 28 6 30 7 31 8 32 9 33
REMARK H PARENT 13 11 30 12 5 29
ROOT
ATOM      1  O   UNL     1     106.726  95.583 110.059  1.00  0.00    -0.275 OA
ATOM      2  N   UNL     1     105.385  96.956 115.368  1.00  0.00    -0.280 N 
ATOM      3  N   UNL     1     106.337  96.629 112.065  1.00  0.00    -0.309 N 
ATOM      4  N   UNL     1     105.862  97.542 114.254  1.00  0.00    -0.157 NA
ATOM      5  C   UNL     1     105.149  95.618 115.237  1.00  0.00     0.047 A 
ATOM      6  C   UNL     1     105.490  95.312 113.942  1.00  0.00     0.059 A 
ATOM      7  C   UNL     1     105.519  94.032 113.183  1.00  0.00     0.199 C 
ATOM      8  C   UNL     1     105.905  96.537 113.376  1.00  0.00     0.161 A 
ATOM      9  C   UNL     1     105.436  94.345 111.671  1.00  0.00     0.150 C 
ATOM     10  C   UNL     1     106.254  95.553 111.197  1.00  0.00     0.229 C 
ATOM     11  H   UNL     1     105.247  97.535 116.188  1.00  0.00     0.190 HD
ATOM     12  H   UNL     1     106.749  97.506 111.763  1.00  0.00     0.171 HD
ENDROOT
BRANCH   5  13
ATOM     13  C   UNL     1     104.597  94.797 116.386  1.00  0.00     0.041 C 
ATOM     14  N   UNL     1     103.815  94.457 119.137  1.00  0.00    -0.348 N 
ATOM     15  C   UNL     1     102.768  94.560 118.116  1.00  0.00     0.119 C 
ATOM     16  C   UNL     1     105.046  93.804 118.680  1.00  0.00     0.119 C 
ATOM     17  C   UNL     1     103.282  95.387 116.936  1.00  0.00     0.031 C 
ATOM     18  C   UNL     1     105.632  94.610 117.514  1.00  0.00     0.031 C 
BRANCH  14  19
ATOM     19  C   UNL     1     103.817  95.256 120.277  1.00  0.00     0.186 A 
ATOM     20  S   UNL     1     103.168  94.637 121.734  1.00  0.00    -0.097 S 
ATOM     21  C   UNL     1     103.542  96.125 122.521  1.00  0.00     0.056 A 
ATOM     22  N   UNL     1     104.291  96.479 120.320  1.00  0.00    -0.220 NA
ATOM     23  C   UNL     1     104.140  96.991 121.601  1.00  0.00     0.084 A 
ATOM     24  C   UNL     1     103.320  96.498 123.856  1.00  0.00     0.021 A 
ATOM     25  C   UNL     1     104.531  98.276 122.035  1.00  0.00     0.030 A 
ATOM     26  C   UNL     1     103.716  97.777 124.260  1.00  0.00     0.002 A 
ATOM     27  C   UNL     1     104.314  98.654 123.363  1.00  0.00     0.002 A 
ENDBRANCH  14  19
ENDBRANCH   5  13
BRANCH   7  28
ATOM     28  O   UNL     1     104.411  93.193 113.526  1.00  0.00    -0.376 OA
ATOM     29  H   UNL     1     104.678  92.268 113.389  1.00  0.00     0.212 HD
ENDBRANCH   7  28
BRANCH   7  30
ATOM     30  C   UNL     1     106.792  93.240 113.494  1.00  0.00     0.422 C 
ATOM     31  F   UNL     1     107.324  92.771 112.357  1.00  0.00    -0.167 F 
ATOM     32  F   UNL     1     107.685  94.032 114.102  1.00  0.00    -0.167 F 
ATOM     33  F   UNL     1     106.501  92.208 114.299  1.00  0.00    -0.167 F 
ENDBRANCH   7  30
TORSDOF 4
ENDMDL
MODEL 12
REMARK VINA RESULT:      -7.0     12.643     14.385
REMARK SMILES O=C1C[C@@](O)(C(F)(F)F)c2c(n[nH]c2C2CCN(c3nc4ccccc4s3)CC2)N1
REMARK SMILES IDX 1 1 13 2 30 3 12 4 14 5 10 6 4 7 11 8 3 9 2 10 15 13 18 14
REMARK SMILES IDX 17 15 28 16 16 17 29 18 19 19 27 20 26 21 20 22 21 23 25 24
REMARK SMILES IDX 22 25 24 26 23 27 5 28 6 30 7 31 8 32 9 33
REMARK H PARENT 13 11 30 12 5 29
ROOT
ATOM      1  O   UNL     1     120.720  93.965 121.726  1.00  0.00    -0.275 OA
ATOM      2  N   UNL     1     116.024  97.073 122.136  1.00  0.00    -0.280 N 
ATOM      3  N   UNL     1     118.596  94.770 122.060  1.00  0.00    -0.309 N 
ATOM      4  N   UNL     1     116.429  95.807 122.348  1.00  0.00    -0.157 NA
ATOM      5  C   UNL     1     117.002  97.899 121.663  1.00  0.00     0.047 A 
ATOM      6  C   UNL     1     118.128  97.117 121.567  1.00  0.00     0.059 A 
ATOM      7  C   UNL     1     119.506  97.389 121.074  1.00  0.00     0.199 C 
ATOM      8  C   UNL     1     117.723  95.842 122.019  1.00  0.00     0.161 A 
ATOM      9  C   UNL     1     120.473  96.360 121.701  1.00  0.00     0.150 C 
ATOM     10  C   UNL     1     119.946  94.923 121.794  1.00  0.00     0.229 C 
ATOM     11  H   UNL     1     115.059  97.303 122.335  1.00  0.00     0.190 HD
ATOM     12  H   UNL     1     118.210  93.854 122.264  1.00  0.00     0.171 HD
ENDROOT
BRANCH   5  13
ATOM     13  C   UNL     1     116.731  99.364 121.380  1.00  0.00     0.041 C 
ATOM     14  N   UNL     1     114.964 101.579 120.857  1.00  0.00    -0.348 N 
ATOM     15  C   UNL     1     115.609 101.489 122.171  1.00  0.00     0.119 C 
ATOM     16  C   UNL     1     115.772 101.058 119.749  1.00  0.00     0.119 C 
ATOM     17  C   UNL     1     115.898 100.023 122.500  1.00  0.00     0.031 C 
ATOM     18  C   UNL     1     116.067  99.575 120.003  1.00  0.00     0.031 C 
BRANCH  14  19
ATOM     19  C   UNL     1     113.589 101.742 120.717  1.00  0.00     0.186 A 
ATOM     20  S   UNL     1     112.970 103.271 120.265  1.00  0.00    -0.097 S 
ATOM     21  C   UNL     1     111.370 102.630 120.324  1.00  0.00     0.056 A 
ATOM     22  N   UNL     1     112.710 100.787 120.909  1.00  0.00    -0.220 NA
ATOM     23  C   UNL     1     111.432 101.281 120.688  1.00  0.00     0.084 A 
ATOM     24  C   UNL     1     110.149 103.274 120.067  1.00  0.00     0.021 A 
ATOM     25  C   UNL     1     110.228 100.553 120.797  1.00  0.00     0.030 A 
ATOM     26  C   UNL     1     108.972 102.530 120.182  1.00  0.00     0.002 A 
ATOM     27  C   UNL     1     109.008 101.188 120.542  1.00  0.00     0.002 A 
ENDBRANCH  14  19
ENDBRANCH   5  13
BRANCH   7  28
ATOM     28  O   UNL     1     119.946  98.700 121.444  1.00  0.00    -0.376 OA
ATOM     29  H   UNL     1     119.168  99.282 121.477  1.00  0.00     0.212 HD
ENDBRANCH   7  28
BRANCH   7  30
ATOM     30  C   UNL     1     119.565  97.314 119.545  1.00  0.00     0.422 C 
ATOM     31  F   UNL     1     120.745  96.808 119.161  1.00  0.00    -0.167 F 
ATOM     32  F   UNL     1     118.582  96.526 119.090  1.00  0.00    -0.167 F 
ATOM     33  F   UNL     1     119.423  98.540 119.022  1.00  0.00    -0.167 F 
ENDBRANCH   7  30
TORSDOF 4
ENDMDL
MODEL 13
REMARK VINA RESULT:      -6.9      2.514      3.308
REMARK SMILES O=C1C[C@@](O)(C(F)(F)F)c2c(n[nH]c2C2CCN(c3nc4ccccc4s3)CC2)N1
REMARK SMILES IDX 1 1 13 2 30 3 12 4 14 5 10 6 4 7 11 8 3 9 2 10 15 13 18 14
REMARK SMILES IDX 17 15 28 16 16 17 29 18 19 19 27 20 26 21 20 22 21 23 25 24
REMARK SMILES IDX 22 25 24 26 23 27 5 28 6 30 7 31 8 32 9 33
REMARK H PARENT 13 11 30 12 5 29
ROOT
ATOM      1  O   UNL     1     100.912  96.557 111.055  1.00  0.00    -0.275 OA
ATOM      2  N   UNL     1     105.924  97.532 113.463  1.00  0.00    -0.280 N 
ATOM      3  N   UNL     1     103.037  97.239 111.592  1.00  0.00    -0.309 N 
ATOM      4  N   UNL     1     105.255  97.849 112.339  1.00  0.00    -0.157 NA
ATOM      5  C   UNL     1     105.233  96.715 114.311  1.00  0.00     0.047 A 
ATOM      6  C   UNL     1     104.024  96.489 113.698  1.00  0.00     0.059 A 
ATOM      7  C   UNL     1     102.849  95.652 114.063  1.00  0.00     0.199 C 
ATOM      8  C   UNL     1     104.084  97.226 112.495  1.00  0.00     0.161 A 
ATOM      9  C   UNL     1     101.601  96.197 113.334  1.00  0.00     0.150 C 
ATOM     10  C   UNL     1     101.820  96.644 111.883  1.00  0.00     0.229 C 
ATOM     11  H   UNL     1     106.855  97.909 113.585  1.00  0.00     0.190 HD
ATOM     12  H   UNL     1     103.196  97.675 110.689  1.00  0.00     0.171 HD
ENDROOT
BRANCH   5  13
ATOM     13  C   UNL     1     105.825  96.266 115.633  1.00  0.00     0.041 C 
ATOM     14  N   UNL     1     105.665  94.929 118.179  1.00  0.00    -0.348 N 
ATOM     15  C   UNL     1     106.446  94.306 117.106  1.00  0.00     0.119 C 
ATOM     16  C   UNL     1     105.676  96.395 118.165  1.00  0.00     0.119 C 
ATOM     17  C   UNL     1     105.879  94.729 115.749  1.00  0.00     0.031 C 
ATOM     18  C   UNL     1     105.084  96.884 116.838  1.00  0.00     0.031 C 
BRANCH  14  19
ATOM     19  C   UNL     1     104.681  94.234 118.877  1.00  0.00     0.186 A 
ATOM     20  S   UNL     1     103.967  92.852 118.164  1.00  0.00    -0.097 S 
ATOM     21  C   UNL     1     102.978  92.654 119.563  1.00  0.00     0.056 A 
ATOM     22  N   UNL     1     104.250  94.565 120.071  1.00  0.00    -0.220 NA
ATOM     23  C   UNL     1     103.272  93.668 120.478  1.00  0.00     0.084 A 
ATOM     24  C   UNL     1     102.012  91.670 119.829  1.00  0.00     0.021 A 
ATOM     25  C   UNL     1     102.574  93.698 121.704  1.00  0.00     0.030 A 
ATOM     26  C   UNL     1     101.335  91.723 121.051  1.00  0.00     0.002 A 
ATOM     27  C   UNL     1     101.611  92.722 121.977  1.00  0.00     0.002 A 
ENDBRANCH  14  19
ENDBRANCH   5  13
BRANCH   7  28
ATOM     28  O   UNL     1     102.596  95.689 115.471  1.00  0.00    -0.376 OA
ATOM     29  H   UNL     1     102.738  94.795 115.827  1.00  0.00     0.212 HD
ENDBRANCH   7  28
BRANCH   7  30
ATOM     30  C   UNL     1     103.086  94.185 113.691  1.00  0.00     0.422 C 
ATOM     31  F   UNL     1     102.024  93.709 113.026  1.00  0.00    -0.167 F 
ATOM     32  F   UNL     1     104.172  94.082 112.913  1.00  0.00    -0.167 F 
ATOM     33  F   UNL     1     103.270  93.457 114.801  1.00  0.00    -0.167 F 
ENDBRANCH   7  30
TORSDOF 4
ENDMDL
MODEL 14
REMARK VINA RESULT:      -6.9     14.434     16.648
REMARK SMILES O=C1C[C@@](O)(C(F)(F)F)c2c(n[nH]c2C2CCN(c3nc4ccccc4s3)CC2)N1
REMARK SMILES IDX 1 1 13 2 30 3 12 4 14 5 10 6 4 7 11 8 3 9 2 10 15 13 18 14
REMARK SMILES IDX 17 15 28 16 16 17 29 18 19 19 27 20 26 21 20 22 21 23 25 24
REMARK SMILES IDX 22 25 24 26 23 27 5 28 6 30 7 31 8 32 9 33
REMARK H PARENT 13 11 30 12 5 29
ROOT
ATOM      1  O   UNL     1     122.948  96.028 120.862  1.00  0.00    -0.275 OA
ATOM      2  N   UNL     1     118.270  97.300 123.755  1.00  0.00    -0.280 N 
ATOM      3  N   UNL     1     121.244  96.198 122.391  1.00  0.00    -0.309 N 
ATOM      4  N   UNL     1     119.359  96.518 123.873  1.00  0.00    -0.157 NA
ATOM      5  C   UNL     1     118.221  98.017 122.594  1.00  0.00     0.047 A 
ATOM      6  C   UNL     1     119.364  97.683 121.909  1.00  0.00     0.059 A 
ATOM      7  C   UNL     1     119.885  98.067 120.569  1.00  0.00     0.199 C 
ATOM      8  C   UNL     1     120.037  96.770 122.751  1.00  0.00     0.161 A 
ATOM      9  C   UNL     1     121.416  97.860 120.550  1.00  0.00     0.150 C 
ATOM     10  C   UNL     1     121.925  96.595 121.252  1.00  0.00     0.229 C 
ATOM     11  H   UNL     1     117.595  97.293 124.510  1.00  0.00     0.190 HD
ATOM     12  H   UNL     1     121.606  95.451 122.976  1.00  0.00     0.171 HD
ENDROOT
BRANCH   5  13
ATOM     13  C   UNL     1     117.073  98.963 122.298  1.00  0.00     0.041 C 
ATOM     14  N   UNL     1     115.848 101.103 120.808  1.00  0.00    -0.348 N 
ATOM     15  C   UNL     1     115.365  99.734 120.599  1.00  0.00     0.119 C 
ATOM     16  C   UNL     1     116.309 101.382 122.172  1.00  0.00     0.119 C 
ATOM     17  C   UNL     1     116.495  98.743 120.884  1.00  0.00     0.031 C 
ATOM     18  C   UNL     1     117.471 100.439 122.507  1.00  0.00     0.031 C 
BRANCH  14  19
ATOM     19  C   UNL     1     116.229 101.922 119.750  1.00  0.00     0.186 A 
ATOM     20  S   UNL     1     117.868 102.386 119.598  1.00  0.00    -0.097 S 
ATOM     21  C   UNL     1     117.473 103.285 118.180  1.00  0.00     0.056 A 
ATOM     22  N   UNL     1     115.405 102.377 118.835  1.00  0.00    -0.220 NA
ATOM     23  C   UNL     1     116.103 103.161 117.929  1.00  0.00     0.084 A 
ATOM     24  C   UNL     1     118.314 104.046 117.352  1.00  0.00     0.021 A 
ATOM     25  C   UNL     1     115.558 103.822 116.806  1.00  0.00     0.030 A 
ATOM     26  C   UNL     1     117.749 104.689 116.248  1.00  0.00     0.002 A 
ATOM     27  C   UNL     1     116.390 104.580 115.977  1.00  0.00     0.002 A 
ENDBRANCH  14  19
ENDBRANCH   5  13
BRANCH   7  28
ATOM     28  O   UNL     1     119.617  99.442 120.276  1.00  0.00    -0.376 OA
ATOM     29  H   UNL     1     119.383  99.510 119.335  1.00  0.00     0.212 HD
ENDBRANCH   7  28
BRANCH   7  30
ATOM     30  C   UNL     1     119.221  97.238 119.466  1.00  0.00     0.422 C 
ATOM     31  F   UNL     1     118.479  96.265 120.014  1.00  0.00    -0.167 F 
ATOM     32  F   UNL     1     118.433  98.022 118.718  1.00  0.00    -0.167 F 
ATOM     33  F   UNL     1     120.159  96.685 118.685  1.00  0.00    -0.167 F 
ENDBRANCH   7  30
TORSDOF 4
ENDMDL
MODEL 15
REMARK VINA RESULT:      -6.9      2.367      3.283
REMARK SMILES O=C1C[C@@](O)(C(F)(F)F)c2c(n[nH]c2C2CCN(c3nc4ccccc4s3)CC2)N1
REMARK SMILES IDX 1 1 13 2 30 3 12 4 14 5 10 6 4 7 11 8 3 9 2 10 15 13 18 14
REMARK SMILES IDX 17 15 28 16 16 17 29 18 19 19 27 20 26 21 20 22 21 23 25 24
REMARK SMILES IDX 22 25 24 26 23 27 5 28 6 30 7 31 8 32 9 33
REMARK H PARENT 13 11 30 12 5 29
ROOT
ATOM      1  O   UNL     1     106.116  96.625 110.483  1.00  0.00    -0.275 OA
ATOM      2  N   UNL     1     107.883  92.790 114.230  1.00  0.00    -0.280 N 
ATOM      3  N   UNL     1     107.158  94.918 111.609  1.00  0.00    -0.309 N 
ATOM      4  N   UNL     1     108.135  93.167 112.962  1.00  0.00    -0.157 NA
ATOM      5  C   UNL     1     106.898  93.512 114.841  1.00  0.00     0.047 A 
ATOM      6  C   UNL     1     106.483  94.429 113.906  1.00  0.00     0.059 A 
ATOM      7  C   UNL     1     105.415  95.466 113.916  1.00  0.00     0.199 C 
ATOM      8  C   UNL     1     107.291  94.185 112.774  1.00  0.00     0.161 A 
ATOM      9  C   UNL     1     105.755  96.544 112.862  1.00  0.00     0.150 C 
ATOM     10  C   UNL     1     106.324  96.022 111.537  1.00  0.00     0.229 C 
ATOM     11  H   UNL     1     108.424  92.027 114.615  1.00  0.00     0.190 HD
ATOM     12  H   UNL     1     107.671  94.604 110.791  1.00  0.00     0.171 HD
ENDROOT
BRANCH   5  13
ATOM     13  C   UNL     1     106.490  93.236 116.275  1.00  0.00     0.041 C 
ATOM     14  N   UNL     1     105.084  93.894 118.701  1.00  0.00    -0.348 N 
ATOM     15  C   UNL     1     104.582  92.792 117.874  1.00  0.00     0.119 C 
ATOM     16  C   UNL     1     106.542  94.053 118.679  1.00  0.00     0.119 C 
ATOM     17  C   UNL     1     104.967  93.032 116.413  1.00  0.00     0.031 C 
ATOM     18  C   UNL     1     106.990  94.332 117.240  1.00  0.00     0.031 C 
BRANCH  14  19
ATOM     19  C   UNL     1     104.263  94.936 119.123  1.00  0.00     0.186 A 
ATOM     20  S   UNL     1     103.529  94.851 120.666  1.00  0.00    -0.097 S 
ATOM     21  C   UNL     1     102.783  96.379 120.384  1.00  0.00     0.056 A 
ATOM     22  N   UNL     1     104.004  96.006 118.410  1.00  0.00    -0.220 NA
ATOM     23  C   UNL     1     103.155  96.843 119.120  1.00  0.00     0.084 A 
ATOM     24  C   UNL     1     101.929  97.114 121.223  1.00  0.00     0.021 A 
ATOM     25  C   UNL     1     102.655  98.088 118.680  1.00  0.00     0.030 A 
ATOM     26  C   UNL     1     101.447  98.343 120.764  1.00  0.00     0.002 A 
ATOM     27  C   UNL     1     101.805  98.825 119.510  1.00  0.00     0.002 A 
ENDBRANCH  14  19
ENDBRANCH   5  13
BRANCH   7  28
ATOM     28  O   UNL     1     105.315  96.105 115.192  1.00  0.00    -0.376 OA
ATOM     29  H   UNL     1     104.409  96.445 115.290  1.00  0.00     0.212 HD
ENDBRANCH   7  28
BRANCH   7  30
ATOM     30  C   UNL     1     104.047  94.844 113.620  1.00  0.00     0.422 C 
ATOM     31  F   UNL     1     103.443  95.522 112.634  1.00  0.00    -0.167 F 
ATOM     32  F   UNL     1     104.198  93.567 113.245  1.00  0.00    -0.167 F 
ATOM     33  F   UNL     1     103.278  94.891 114.717  1.00  0.00    -0.167 F 
ENDBRANCH   7  30
TORSDOF 4
ENDMDL
