MODEL 1
REMARK VINA RESULT:      -9.0      0.000      0.000
REMARK SMILES CCOc1ccc(Cl)cc1/C=N/N1C(=O)[C@@H]2[C@H]3c4ccccc4[C@H](c4ccccc43)[C@@H]2C1=O
REMARK SMILES IDX 8 1 10 2 4 3 9 4 5 5 7 6 6 7 11 8 12 9 13 10 32 11 14 12
REMARK SMILES IDX 33 13 31 14 15 15 16 16 24 17 17 18 23 19 25 20 18 21 30 22
REMARK SMILES IDX 22 23 26 24 19 25 29 26 21 27 27 28 20 29 28 30 3 31 2 32
REMARK SMILES IDX 1 33
REMARK H PARENT
ROOT
ATOM      1  Cl  UNL     1     110.905 101.560 122.082  1.00  0.00    -0.084 Cl
ATOM      2  C   UNL     1     114.333 101.628 120.045  1.00  0.00     0.038 A 
ATOM      3  C   UNL     1     114.108 102.599 119.081  1.00  0.00     0.128 A 
ATOM      4  C   UNL     1     113.357 101.299 120.973  1.00  0.00     0.034 A 
ATOM      5  C   UNL     1     112.878 103.256 119.044  1.00  0.00     0.048 A 
ATOM      6  C   UNL     1     112.127 101.956 120.936  1.00  0.00     0.041 A 
ATOM      7  C   UNL     1     111.888 102.935 119.972  1.00  0.00     0.024 A 
ENDROOT
BRANCH   2   8
ATOM      8  C   UNL     1     115.625 100.922 120.102  1.00  0.00     0.146 C 
ATOM      9  N   UNL     1     115.701  99.632 120.121  1.00  0.00    -0.170 NA
BRANCH   9  10
ATOM     10  N   UNL     1     116.961  99.169 120.175  1.00  0.00    -0.166 N 
ATOM     11  C   UNL     1     117.683  99.143 121.346  1.00  0.00     0.254 C 
ATOM     12  C   UNL     1     117.579  98.653 119.059  1.00  0.00     0.254 C 
ATOM     13  O   UNL     1     117.332  99.504 122.460  1.00  0.00    -0.272 OA
ATOM     14  C   UNL     1     119.037  98.555 121.016  1.00  0.00     0.106 C 
ATOM     15  O   UNL     1     117.129  98.535 117.929  1.00  0.00    -0.272 OA
ATOM     16  C   UNL     1     118.968  98.226 119.483  1.00  0.00     0.106 C 
ATOM     17  C   UNL     1     119.373  97.269 121.826  1.00  0.00     0.063 C 
ATOM     18  C   UNL     1     119.257  96.716 119.244  1.00  0.00     0.063 C 
ATOM     19  C   UNL     1     120.700  96.780 121.246  1.00  0.00    -0.036 A 
ATOM     20  C   UNL     1     118.323  96.219 121.471  1.00  0.00    -0.036 A 
ATOM     21  C   UNL     1     120.638  96.482 119.856  1.00  0.00    -0.036 A 
ATOM     22  C   UNL     1     118.260  95.922 120.085  1.00  0.00    -0.036 A 
ATOM     23  C   UNL     1     121.883  96.616 121.952  1.00  0.00     0.004 A 
ATOM     24  C   UNL     1     117.480  95.581 122.369  1.00  0.00     0.004 A 
ATOM     25  C   UNL     1     121.758  96.023 119.180  1.00  0.00     0.004 A 
ATOM     26  C   UNL     1     117.355  94.988 119.602  1.00  0.00     0.004 A 
ATOM     27  C   UNL     1     123.009  96.155 121.265  1.00  0.00     0.000 A 
ATOM     28  C   UNL     1     116.568  94.644 121.880  1.00  0.00     0.000 A 
ATOM     29  C   UNL     1     122.947  95.861 119.894  1.00  0.00     0.000 A 
ATOM     30  C   UNL     1     116.506  94.350 120.509  1.00  0.00     0.000 A 
ENDBRANCH   9  10
ENDBRANCH   2   8
BRANCH   3  31
ATOM     31  O   UNL     1     115.064 102.928 118.166  1.00  0.00    -0.493 OA
BRANCH  31  32
ATOM     32  C   UNL     1     114.680 103.818 117.120  1.00  0.00     0.226 C 
ATOM     33  C   UNL     1     115.837 103.974 116.157  1.00  0.00     0.049 C 
ENDBRANCH  31  32
ENDBRANCH   3  31
TORSDOF 4
ENDMDL
MODEL 2
REMARK VINA RESULT:      -8.5      1.797      3.116
REMARK SMILES CCOc1ccc(Cl)cc1/C=N/N1C(=O)[C@@H]2[C@H]3c4ccccc4[C@H](c4ccccc43)[C@@H]2C1=O
REMARK SMILES IDX 8 1 10 2 4 3 9 4 5 5 7 6 6 7 11 8 12 9 13 10 32 11 14 12
REMARK SMILES IDX 33 13 31 14 15 15 16 16 24 17 17 18 23 19 25 20 18 21 30 22
REMARK SMILES IDX 22 23 26 24 19 25 29 26 21 27 27 28 20 29 28 30 3 31 2 32
REMARK SMILES IDX 1 33
REMARK H PARENT
ROOT
ATOM      1  Cl  UNL     1     111.615 102.747 119.602  1.00  0.00    -0.084 Cl
ATOM      2  C   UNL     1     113.809  99.641 120.802  1.00  0.00     0.038 A 
ATOM      3  C   UNL     1     112.889  98.839 121.459  1.00  0.00     0.128 A 
ATOM      4  C   UNL     1     113.431 100.845 120.227  1.00  0.00     0.034 A 
ATOM      5  C   UNL     1     111.559  99.251 121.544  1.00  0.00     0.048 A 
ATOM      6  C   UNL     1     112.102 101.257 120.312  1.00  0.00     0.041 A 
ATOM      7  C   UNL     1     111.165 100.459 120.969  1.00  0.00     0.024 A 
ENDROOT
BRANCH   2   8
ATOM      8  C   UNL     1     115.219  99.225 120.700  1.00  0.00     0.146 C 
ATOM      9  N   UNL     1     116.143 100.030 120.287  1.00  0.00    -0.170 NA
BRANCH   9  10
ATOM     10  N   UNL     1     117.367  99.474 120.261  1.00  0.00    -0.166 N 
ATOM     11  C   UNL     1     118.164  99.406 121.381  1.00  0.00     0.254 C 
ATOM     12  C   UNL     1     117.866  98.902 119.114  1.00  0.00     0.254 C 
ATOM     13  O   UNL     1     117.919  99.804 122.510  1.00  0.00    -0.272 OA
ATOM     14  C   UNL     1     119.445  98.715 120.968  1.00  0.00     0.106 C 
ATOM     15  O   UNL     1     117.331  98.806 118.019  1.00  0.00    -0.272 OA
ATOM     16  C   UNL     1     119.245  98.376 119.449  1.00  0.00     0.106 C 
ATOM     17  C   UNL     1     119.740  97.415 121.773  1.00  0.00     0.063 C 
ATOM     18  C   UNL     1     119.404  96.846 119.214  1.00  0.00     0.063 C 
ATOM     19  C   UNL     1     120.984  96.822 121.111  1.00  0.00    -0.036 A 
ATOM     20  C   UNL     1     118.592  96.444 121.507  1.00  0.00    -0.036 A 
ATOM     21  C   UNL     1     120.804  96.516 119.734  1.00  0.00    -0.036 A 
ATOM     22  C   UNL     1     118.411  96.138 120.133  1.00  0.00    -0.036 A 
ATOM     23  C   UNL     1     122.197  96.578 121.737  1.00  0.00     0.004 A 
ATOM     24  C   UNL     1     117.768  95.881 122.470  1.00  0.00     0.004 A 
ATOM     25  C   UNL     1     121.837  95.966 118.990  1.00  0.00     0.004 A 
ATOM     26  C   UNL     1     117.408  95.270 119.727  1.00  0.00     0.004 A 
ATOM     27  C   UNL     1     123.235  96.026 120.983  1.00  0.00     0.000 A 
ATOM     28  C   UNL     1     116.758  95.010 122.059  1.00  0.00     0.000 A 
ATOM     29  C   UNL     1     123.057  95.724 119.624  1.00  0.00     0.000 A 
ATOM     30  C   UNL     1     116.580  94.707 120.700  1.00  0.00     0.000 A 
ENDBRANCH   9  10
ENDBRANCH   2   8
BRANCH   3  31
ATOM     31  O   UNL     1     113.255  97.654 122.026  1.00  0.00    -0.493 OA
BRANCH  31  32
ATOM     32  C   UNL     1     112.309  96.588 121.962  1.00  0.00     0.226 C 
ATOM     33  C   UNL     1     113.046  95.270 122.074  1.00  0.00     0.049 C 
ENDBRANCH  31  32
ENDBRANCH   3  31
TORSDOF 4
ENDMDL
MODEL 3
REMARK VINA RESULT:      -8.1     13.533     15.829
REMARK SMILES CCOc1ccc(Cl)cc1/C=N/N1C(=O)[C@@H]2[C@H]3c4ccccc4[C@H](c4ccccc43)[C@@H]2C1=O
REMARK SMILES IDX 8 1 10 2 4 3 9 4 5 5 7 6 6 7 11 8 12 9 13 10 32 11 14 12
REMARK SMILES IDX 33 13 31 14 15 15 16 16 24 17 17 18 23 19 25 20 18 21 30 22
REMARK SMILES IDX 22 23 26 24 19 25 29 26 21 27 27 28 20 29 28 30 3 31 2 32
REMARK SMILES IDX 1 33
REMARK H PARENT
ROOT
ATOM      1  Cl  UNL     1     102.699  94.738 123.545  1.00  0.00    -0.084 Cl
ATOM      2  C   UNL     1     102.875  93.150 119.892  1.00  0.00     0.038 A 
ATOM      3  C   UNL     1     102.034  92.051 119.984  1.00  0.00     0.128 A 
ATOM      4  C   UNL     1     103.088  93.984 120.979  1.00  0.00     0.034 A 
ATOM      5  C   UNL     1     101.392  91.779 121.192  1.00  0.00     0.048 A 
ATOM      6  C   UNL     1     102.447  93.713 122.187  1.00  0.00     0.041 A 
ATOM      7  C   UNL     1     101.598  92.611 122.294  1.00  0.00     0.024 A 
ENDROOT
BRANCH   2   8
ATOM      8  C   UNL     1     103.562  93.455 118.625  1.00  0.00     0.146 C 
ATOM      9  N   UNL     1     104.824  93.734 118.580  1.00  0.00    -0.170 NA
BRANCH   9  10
ATOM     10  N   UNL     1     105.274  93.985 117.339  1.00  0.00    -0.166 N 
ATOM     11  C   UNL     1     105.823  93.003 116.546  1.00  0.00     0.254 C 
ATOM     12  C   UNL     1     105.166  95.238 116.780  1.00  0.00     0.254 C 
ATOM     13  O   UNL     1     105.983  91.820 116.808  1.00  0.00    -0.272 OA
ATOM     14  C   UNL     1     106.201  93.655 115.234  1.00  0.00     0.106 C 
ATOM     15  O   UNL     1     104.683  96.248 117.270  1.00  0.00    -0.272 OA
ATOM     16  C   UNL     1     105.760  95.153 115.391  1.00  0.00     0.106 C 
ATOM     17  C   UNL     1     105.504  93.017 113.997  1.00  0.00     0.063 C 
ATOM     18  C   UNL     1     104.762  95.540 114.261  1.00  0.00     0.063 C 
ATOM     19  C   UNL     1     105.917  93.901 112.820  1.00  0.00    -0.036 A 
ATOM     20  C   UNL     1     103.999  93.197 114.178  1.00  0.00    -0.036 A 
ATOM     21  C   UNL     1     105.518  95.259 112.962  1.00  0.00    -0.036 A 
ATOM     22  C   UNL     1     103.600  94.551 114.320  1.00  0.00    -0.036 A 
ATOM     23  C   UNL     1     106.610  93.481 111.694  1.00  0.00     0.004 A 
ATOM     24  C   UNL     1     103.060  92.177 114.211  1.00  0.00     0.004 A 
ATOM     25  C   UNL     1     105.813  96.189 111.976  1.00  0.00     0.004 A 
ATOM     26  C   UNL     1     102.264  94.881 114.493  1.00  0.00     0.004 A 
ATOM     27  C   UNL     1     106.905  94.423 110.705  1.00  0.00     0.000 A 
ATOM     28  C   UNL     1     101.716  92.511 114.388  1.00  0.00     0.000 A 
ATOM     29  C   UNL     1     106.511  95.762 110.845  1.00  0.00     0.000 A 
ATOM     30  C   UNL     1     101.321  93.851 114.528  1.00  0.00     0.000 A 
ENDBRANCH   9  10
ENDBRANCH   2   8
BRANCH   3  31
ATOM     31  O   UNL     1     101.820  91.228 118.919  1.00  0.00    -0.493 OA
BRANCH  31  32
ATOM     32  C   UNL     1     100.492  90.738 118.736  1.00  0.00     0.226 C 
ATOM     33  C   UNL     1     100.119  90.865 117.275  1.00  0.00     0.049 C 
ENDBRANCH  31  32
ENDBRANCH   3  31
TORSDOF 4
ENDMDL
MODEL 4
REMARK VINA RESULT:      -8.1     12.989     15.304
REMARK SMILES CCOc1ccc(Cl)cc1/C=N/N1C(=O)[C@@H]2[C@H]3c4ccccc4[C@H](c4ccccc43)[C@@H]2C1=O
REMARK SMILES IDX 8 1 10 2 4 3 9 4 5 5 7 6 6 7 11 8 12 9 13 10 32 11 14 12
REMARK SMILES IDX 33 13 31 14 15 15 16 16 24 17 17 18 23 19 25 20 18 21 30 22
REMARK SMILES IDX 22 23 26 24 19 25 29 26 21 27 27 28 20 29 28 30 3 31 2 32
REMARK SMILES IDX 1 33
REMARK H PARENT
ROOT
ATOM      1  Cl  UNL     1     103.279  95.830 123.879  1.00  0.00    -0.084 Cl
ATOM      2  C   UNL     1     103.235  93.973 120.351  1.00  0.00     0.038 A 
ATOM      3  C   UNL     1     102.385  92.899 120.570  1.00  0.00     0.128 A 
ATOM      4  C   UNL     1     103.519  94.881 121.360  1.00  0.00     0.034 A 
ATOM      5  C   UNL     1     101.805  92.730 121.827  1.00  0.00     0.048 A 
ATOM      6  C   UNL     1     102.939  94.712 122.617  1.00  0.00     0.041 A 
ATOM      7  C   UNL     1     102.081  93.637 122.850  1.00  0.00     0.024 A 
ENDROOT
BRANCH   2   8
ATOM      8  C   UNL     1     103.858  94.171 119.031  1.00  0.00     0.146 C 
ATOM      9  N   UNL     1     104.840  94.994 118.852  1.00  0.00    -0.170 NA
BRANCH   9  10
ATOM     10  N   UNL     1     105.276  95.040 117.582  1.00  0.00    -0.166 N 
ATOM     11  C   UNL     1     106.252  94.191 117.112  1.00  0.00     0.254 C 
ATOM     12  C   UNL     1     104.733  95.918 116.672  1.00  0.00     0.254 C 
ATOM     13  O   UNL     1     106.845  93.310 117.716  1.00  0.00    -0.272 OA
ATOM     14  C   UNL     1     106.469  94.534 115.654  1.00  0.00     0.106 C 
ATOM     15  O   UNL     1     103.837  96.731 116.845  1.00  0.00    -0.272 OA
ATOM     16  C   UNL     1     105.451  95.691 115.360  1.00  0.00     0.106 C 
ATOM     17  C   UNL     1     106.219  93.340 114.688  1.00  0.00     0.063 C 
ATOM     18  C   UNL     1     104.504  95.289 114.192  1.00  0.00     0.063 C 
ATOM     19  C   UNL     1     106.362  93.937 113.288  1.00  0.00    -0.036 A 
ATOM     20  C   UNL     1     104.758  92.925 114.845  1.00  0.00    -0.036 A 
ATOM     21  C   UNL     1     105.439  94.986 113.020  1.00  0.00    -0.036 A 
ATOM     22  C   UNL     1     103.837  93.971 114.579  1.00  0.00    -0.036 A 
ATOM     23  C   UNL     1     107.276  93.537 112.325  1.00  0.00     0.004 A 
ATOM     24  C   UNL     1     104.309  91.664 115.211  1.00  0.00     0.004 A 
ATOM     25  C   UNL     1     105.435  95.629 111.792  1.00  0.00     0.004 A 
ATOM     26  C   UNL     1     102.471  93.753 114.678  1.00  0.00     0.004 A 
ATOM     27  C   UNL     1     107.270  94.189 111.089  1.00  0.00     0.000 A 
ATOM     28  C   UNL     1     102.934  91.449 115.313  1.00  0.00     0.000 A 
ATOM     29  C   UNL     1     106.359  95.224 110.826  1.00  0.00     0.000 A 
ATOM     30  C   UNL     1     102.023  92.483 115.049  1.00  0.00     0.000 A 
ENDBRANCH   9  10
ENDBRANCH   2   8
BRANCH   3  31
ATOM     31  O   UNL     1     102.102  92.003 119.582  1.00  0.00    -0.493 OA
BRANCH  31  32
ATOM     32  C   UNL     1     101.288  90.887 119.935  1.00  0.00     0.226 C 
ATOM     33  C   UNL     1     100.443  90.497 118.741  1.00  0.00     0.049 C 
ENDBRANCH  31  32
ENDBRANCH   3  31
TORSDOF 4
ENDMDL
MODEL 5
REMARK VINA RESULT:      -7.9      1.433      1.877
REMARK SMILES CCOc1ccc(Cl)cc1/C=N/N1C(=O)[C@@H]2[C@H]3c4ccccc4[C@H](c4ccccc43)[C@@H]2C1=O
REMARK SMILES IDX 8 1 10 2 4 3 9 4 5 5 7 6 6 7 11 8 12 9 13 10 32 11 14 12
REMARK SMILES IDX 33 13 31 14 15 15 16 16 24 17 17 18 23 19 25 20 18 21 30 22
REMARK SMILES IDX 22 23 26 24 19 25 29 26 21 27 27 28 20 29 28 30 3 31 2 32
REMARK SMILES IDX 1 33
REMARK H PARENT
ROOT
ATOM      1  Cl  UNL     1     111.008 101.343 119.856  1.00  0.00    -0.084 Cl
ATOM      2  C   UNL     1     114.886 102.013 120.500  1.00  0.00     0.038 A 
ATOM      3  C   UNL     1     114.921 103.354 120.850  1.00  0.00     0.128 A 
ATOM      4  C   UNL     1     113.690 101.382 120.192  1.00  0.00     0.034 A 
ATOM      5  C   UNL     1     113.733 104.082 120.891  1.00  0.00     0.048 A 
ATOM      6  C   UNL     1     112.501 102.110 120.234  1.00  0.00     0.041 A 
ATOM      7  C   UNL     1     112.522 103.460 120.585  1.00  0.00     0.024 A 
ENDROOT
BRANCH   2   8
ATOM      8  C   UNL     1     116.130 101.225 120.450  1.00  0.00     0.146 C 
ATOM      9  N   UNL     1     116.129  99.935 120.545  1.00  0.00    -0.170 NA
BRANCH   9  10
ATOM     10  N   UNL     1     117.356  99.391 120.478  1.00  0.00    -0.166 N 
ATOM     11  C   UNL     1     118.155  99.248 121.590  1.00  0.00     0.254 C 
ATOM     12  C   UNL     1     117.859  98.907 119.293  1.00  0.00     0.254 C 
ATOM     13  O   UNL     1     117.908  99.562 122.745  1.00  0.00    -0.272 OA
ATOM     14  C   UNL     1     119.440  98.597 121.129  1.00  0.00     0.106 C 
ATOM     15  O   UNL     1     117.323  98.887 118.194  1.00  0.00    -0.272 OA
ATOM     16  C   UNL     1     119.241  98.368 119.589  1.00  0.00     0.106 C 
ATOM     17  C   UNL     1     119.744  97.245 121.838  1.00  0.00     0.063 C 
ATOM     18  C   UNL     1     119.411  96.860 119.244  1.00  0.00     0.063 C 
ATOM     19  C   UNL     1     120.992  96.710 121.134  1.00  0.00    -0.036 A 
ATOM     20  C   UNL     1     118.603  96.287 121.502  1.00  0.00    -0.036 A 
ATOM     21  C   UNL     1     120.813  96.503 119.738  1.00  0.00    -0.036 A 
ATOM     22  C   UNL     1     118.424  96.080 120.110  1.00  0.00    -0.036 A 
ATOM     23  C   UNL     1     122.207  96.429 121.741  1.00  0.00     0.004 A 
ATOM     24  C   UNL     1     117.784  95.651 122.423  1.00  0.00     0.004 A 
ATOM     25  C   UNL     1     121.849  96.015 118.956  1.00  0.00     0.004 A 
ATOM     26  C   UNL     1     117.426  95.237 119.643  1.00  0.00     0.004 A 
ATOM     27  C   UNL     1     123.249  95.940 120.948  1.00  0.00     0.000 A 
ATOM     28  C   UNL     1     116.780  94.805 121.950  1.00  0.00     0.000 A 
ATOM     29  C   UNL     1     123.071  95.736 119.571  1.00  0.00     0.000 A 
ATOM     30  C   UNL     1     116.602  94.599 120.573  1.00  0.00     0.000 A 
ENDBRANCH   9  10
ENDBRANCH   2   8
BRANCH   3  31
ATOM     31  O   UNL     1     116.094 103.979 121.154  1.00  0.00    -0.493 OA
BRANCH  31  32
ATOM     32  C   UNL     1     116.264 104.415 122.501  1.00  0.00     0.226 C 
ATOM     33  C   UNL     1     117.160 103.435 123.226  1.00  0.00     0.049 C 
ENDBRANCH  31  32
ENDBRANCH   3  31
TORSDOF 4
ENDMDL
MODEL 6
REMARK VINA RESULT:      -7.8     13.746     16.043
REMARK SMILES CCOc1ccc(Cl)cc1/C=N/N1C(=O)[C@@H]2[C@H]3c4ccccc4[C@H](c4ccccc43)[C@@H]2C1=O
REMARK SMILES IDX 8 1 10 2 4 3 9 4 5 5 7 6 6 7 11 8 12 9 13 10 32 11 14 12
REMARK SMILES IDX 33 13 31 14 15 15 16 16 24 17 17 18 23 19 25 20 18 21 30 22
REMARK SMILES IDX 22 23 26 24 19 25 29 26 21 27 27 28 20 29 28 30 3 31 2 32
REMARK SMILES IDX 1 33
REMARK H PARENT
ROOT
ATOM      1  Cl  UNL     1     100.116  89.056 120.152  1.00  0.00    -0.084 Cl
ATOM      2  C   UNL     1     102.361  92.271 119.427  1.00  0.00     0.038 A 
ATOM      3  C   UNL     1     102.371  92.931 120.646  1.00  0.00     0.128 A 
ATOM      4  C   UNL     1     101.672  91.079 119.262  1.00  0.00     0.034 A 
ATOM      5  C   UNL     1     101.674  92.387 121.725  1.00  0.00     0.048 A 
ATOM      6  C   UNL     1     100.975  90.535 120.340  1.00  0.00     0.041 A 
ATOM      7  C   UNL     1     100.977  91.188 121.573  1.00  0.00     0.024 A 
ENDROOT
BRANCH   2   8
ATOM      8  C   UNL     1     103.090  92.828 118.274  1.00  0.00     0.146 C 
ATOM      9  N   UNL     1     104.376  92.738 118.168  1.00  0.00    -0.170 NA
BRANCH   9  10
ATOM     10  N   UNL     1     104.863  93.304 117.051  1.00  0.00    -0.166 N 
ATOM     11  C   UNL     1     104.963  92.614 115.864  1.00  0.00     0.254 C 
ATOM     12  C   UNL     1     105.247  94.625 117.029  1.00  0.00     0.254 C 
ATOM     13  O   UNL     1     104.648  91.456 115.633  1.00  0.00    -0.272 OA
ATOM     14  C   UNL     1     105.540  93.571 114.845  1.00  0.00     0.106 C 
ATOM     15  O   UNL     1     105.212  95.440 117.940  1.00  0.00    -0.272 OA
ATOM     16  C   UNL     1     105.730  94.919 115.626  1.00  0.00     0.106 C 
ATOM     17  C   UNL     1     104.623  93.793 113.607  1.00  0.00     0.063 C 
ATOM     18  C   UNL     1     104.945  96.064 114.922  1.00  0.00     0.063 C 
ATOM     19  C   UNL     1     105.328  94.877 112.791  1.00  0.00    -0.036 A 
ATOM     20  C   UNL     1     103.316  94.399 114.111  1.00  0.00    -0.036 A 
ATOM     21  C   UNL     1     105.501  96.099 113.498  1.00  0.00    -0.036 A 
ATOM     22  C   UNL     1     103.488  95.618 114.817  1.00  0.00    -0.036 A 
ATOM     23  C   UNL     1     105.775  94.746 111.484  1.00  0.00     0.004 A 
ATOM     24  C   UNL     1     102.051  93.859 113.931  1.00  0.00     0.004 A 
ATOM     25  C   UNL     1     106.119  97.184 112.895  1.00  0.00     0.004 A 
ATOM     26  C   UNL     1     102.394  96.293 115.339  1.00  0.00     0.004 A 
ATOM     27  C   UNL     1     106.398  95.842 110.882  1.00  0.00     0.000 A 
ATOM     28  C   UNL     1     100.953  94.540 114.459  1.00  0.00     0.000 A 
ATOM     29  C   UNL     1     106.569  97.048 111.581  1.00  0.00     0.000 A 
ATOM     30  C   UNL     1     101.122  95.746 115.157  1.00  0.00     0.000 A 
ENDBRANCH   9  10
ENDBRANCH   2   8
BRANCH   3  31
ATOM     31  O   UNL     1     103.047  94.103 120.815  1.00  0.00    -0.493 OA
BRANCH  31  32
ATOM     32  C   UNL     1     102.266  95.269 121.070  1.00  0.00     0.226 C 
ATOM     33  C   UNL     1     102.128  96.059 119.786  1.00  0.00     0.049 C 
ENDBRANCH  31  32
ENDBRANCH   3  31
TORSDOF 4
ENDMDL
MODEL 7
REMARK VINA RESULT:      -7.6     13.218     15.908
REMARK SMILES CCOc1ccc(Cl)cc1/C=N/N1C(=O)[C@@H]2[C@H]3c4ccccc4[C@H](c4ccccc43)[C@@H]2C1=O
REMARK SMILES IDX 8 1 10 2 4 3 9 4 5 5 7 6 6 7 11 8 12 9 13 10 32 11 14 12
REMARK SMILES IDX 33 13 31 14 15 15 16 16 24 17 17 18 23 19 25 20 18 21 30 22
REMARK SMILES IDX 22 23 26 24 19 25 29 26 21 27 27 28 20 29 28 30 3 31 2 32
REMARK SMILES IDX 1 33
REMARK H PARENT
ROOT
ATOM      1  Cl  UNL     1     100.116  88.681 120.017  1.00  0.00    -0.084 Cl
ATOM      2  C   UNL     1     101.918  92.149 119.225  1.00  0.00     0.038 A 
ATOM      3  C   UNL     1     101.986  92.761 120.468  1.00  0.00     0.128 A 
ATOM      4  C   UNL     1     101.345  90.895 119.072  1.00  0.00     0.034 A 
ATOM      5  C   UNL     1     101.469  92.103 121.584  1.00  0.00     0.048 A 
ATOM      6  C   UNL     1     100.828  90.238 120.188  1.00  0.00     0.041 A 
ATOM      7  C   UNL     1     100.891  90.841 121.445  1.00  0.00     0.024 A 
ENDROOT
BRANCH   2   8
ATOM      8  C   UNL     1     102.458  92.826 118.033  1.00  0.00     0.146 C 
ATOM      9  N   UNL     1     101.776  92.937 116.940  1.00  0.00    -0.170 NA
BRANCH   9  10
ATOM     10  N   UNL     1     102.432  93.584 115.962  1.00  0.00    -0.166 N 
ATOM     11  C   UNL     1     102.334  94.947 115.791  1.00  0.00     0.254 C 
ATOM     12  C   UNL     1     103.274  92.915 115.104  1.00  0.00     0.254 C 
ATOM     13  O   UNL     1     101.688  95.748 116.450  1.00  0.00    -0.272 OA
ATOM     14  C   UNL     1     103.209  95.306 114.610  1.00  0.00     0.106 C 
ATOM     15  O   UNL     1     103.550  91.724 115.087  1.00  0.00    -0.272 OA
ATOM     16  C   UNL     1     103.839  93.945 114.150  1.00  0.00     0.106 C 
ATOM     17  C   UNL     1     104.331  96.329 114.954  1.00  0.00     0.063 C 
ATOM     18  C   UNL     1     105.393  94.036 114.177  1.00  0.00     0.063 C 
ATOM     19  C   UNL     1     105.159  96.441 113.673  1.00  0.00    -0.036 A 
ATOM     20  C   UNL     1     105.230  95.683 116.005  1.00  0.00    -0.036 A 
ATOM     21  C   UNL     1     105.730  95.207 113.255  1.00  0.00    -0.036 A 
ATOM     22  C   UNL     1     105.800  94.452 115.589  1.00  0.00    -0.036 A 
ATOM     23  C   UNL     1     105.374  97.603 112.946  1.00  0.00     0.004 A 
ATOM     24  C   UNL     1     105.502  96.198 117.264  1.00  0.00     0.004 A 
ATOM     25  C   UNL     1     106.514  95.142 112.113  1.00  0.00     0.004 A 
ATOM     26  C   UNL     1     106.641  93.740 116.433  1.00  0.00     0.004 A 
ATOM     27  C   UNL     1     106.163  97.531 111.795  1.00  0.00     0.000 A 
ATOM     28  C   UNL     1     106.346  95.479 118.112  1.00  0.00     0.000 A 
ATOM     29  C   UNL     1     106.726  96.313 111.383  1.00  0.00     0.000 A 
ATOM     30  C   UNL     1     106.911  94.261 117.700  1.00  0.00     0.000 A 
ENDBRANCH   9  10
ENDBRANCH   2   8
BRANCH   3  31
ATOM     31  O   UNL     1     102.548  93.993 120.624  1.00  0.00    -0.493 OA
BRANCH  31  32
ATOM     32  C   UNL     1     101.712  95.023 121.147  1.00  0.00     0.226 C 
ATOM     33  C   UNL     1     100.909  95.626 120.015  1.00  0.00     0.049 C 
ENDBRANCH  31  32
ENDBRANCH   3  31
TORSDOF 4
ENDMDL
MODEL 8
REMARK VINA RESULT:      -7.5     13.219     15.187
REMARK SMILES CCOc1ccc(Cl)cc1/C=N/N1C(=O)[C@@H]2[C@H]3c4ccccc4[C@H](c4ccccc43)[C@@H]2C1=O
REMARK SMILES IDX 8 1 10 2 4 3 9 4 5 5 7 6 6 7 11 8 12 9 13 10 32 11 14 12
REMARK SMILES IDX 33 13 31 14 15 15 16 16 24 17 17 18 23 19 25 20 18 21 30 22
REMARK SMILES IDX 22 23 26 24 19 25 29 26 21 27 27 28 20 29 28 30 3 31 2 32
REMARK SMILES IDX 1 33
REMARK H PARENT
ROOT
ATOM      1  Cl  UNL     1     100.735  90.917 121.666  1.00  0.00    -0.084 Cl
ATOM      2  C   UNL     1     103.141  93.662 120.060  1.00  0.00     0.038 A 
ATOM      3  C   UNL     1     103.300  94.582 121.085  1.00  0.00     0.128 A 
ATOM      4  C   UNL     1     102.355  92.532 120.225  1.00  0.00     0.034 A 
ATOM      5  C   UNL     1     102.658  94.366 122.304  1.00  0.00     0.048 A 
ATOM      6  C   UNL     1     101.713  92.316 121.444  1.00  0.00     0.041 A 
ATOM      7  C   UNL     1     101.865  93.233 122.484  1.00  0.00     0.024 A 
ENDROOT
BRANCH   2   8
ATOM      8  C   UNL     1     103.810  93.871 118.764  1.00  0.00     0.146 C 
ATOM      9  N   UNL     1     105.064  93.604 118.589  1.00  0.00    -0.170 NA
BRANCH   9  10
ATOM     10  N   UNL     1     105.498  93.858 117.343  1.00  0.00    -0.166 N 
ATOM     11  C   UNL     1     105.805  92.852 116.456  1.00  0.00     0.254 C 
ATOM     12  C   UNL     1     105.615  95.147 116.877  1.00  0.00     0.254 C 
ATOM     13  O   UNL     1     105.739  91.644 116.628  1.00  0.00    -0.272 OA
ATOM     14  C   UNL     1     106.245  93.518 115.170  1.00  0.00     0.106 C 
ATOM     15  O   UNL     1     105.364  96.191 117.463  1.00  0.00    -0.272 OA
ATOM     16  C   UNL     1     106.117  95.056 115.453  1.00  0.00     0.106 C 
ATOM     17  C   UNL     1     105.380  93.125 113.937  1.00  0.00     0.063 C 
ATOM     18  C   UNL     1     105.166  95.717 114.413  1.00  0.00     0.063 C 
ATOM     19  C   UNL     1     105.906  94.001 112.799  1.00  0.00    -0.036 A 
ATOM     20  C   UNL     1     103.950  93.580 114.219  1.00  0.00    -0.036 A 
ATOM     21  C   UNL     1     105.792  95.396 113.055  1.00  0.00    -0.036 A 
ATOM     22  C   UNL     1     103.834  94.971 114.474  1.00  0.00    -0.036 A 
ATOM     23  C   UNL     1     106.450  93.543 111.608  1.00  0.00     0.004 A 
ATOM     24  C   UNL     1     102.830  92.762 114.239  1.00  0.00     0.004 A 
ATOM     25  C   UNL     1     106.219  96.324 112.118  1.00  0.00     0.004 A 
ATOM     26  C   UNL     1     102.599  95.540 114.749  1.00  0.00     0.004 A 
ATOM     27  C   UNL     1     106.881  94.483 110.669  1.00  0.00     0.000 A 
ATOM     28  C   UNL     1     101.589  93.337 114.518  1.00  0.00     0.000 A 
ATOM     29  C   UNL     1     106.767  95.859 110.922  1.00  0.00     0.000 A 
ATOM     30  C   UNL     1     101.474  94.713 114.771  1.00  0.00     0.000 A 
ENDBRANCH   9  10
ENDBRANCH   2   8
BRANCH   3  31
ATOM     31  O   UNL     1     104.072  95.695 120.929  1.00  0.00    -0.493 OA
BRANCH  31  32
ATOM     32  C   UNL     1     103.438  96.955 121.139  1.00  0.00     0.226 C 
ATOM     33  C   UNL     1     104.442  98.059 120.879  1.00  0.00     0.049 C 
ENDBRANCH  31  32
ENDBRANCH   3  31
TORSDOF 4
ENDMDL
MODEL 9
REMARK VINA RESULT:      -7.4     13.169     15.644
REMARK SMILES CCOc1ccc(Cl)cc1/C=N/N1C(=O)[C@@H]2[C@H]3c4ccccc4[C@H](c4ccccc43)[C@@H]2C1=O
REMARK SMILES IDX 8 1 10 2 4 3 9 4 5 5 7 6 6 7 11 8 12 9 13 10 32 11 14 12
REMARK SMILES IDX 33 13 31 14 15 15 16 16 24 17 17 18 23 19 25 20 18 21 30 22
REMARK SMILES IDX 22 23 26 24 19 25 29 26 21 27 27 28 20 29 28 30 3 31 2 32
REMARK SMILES IDX 1 33
REMARK H PARENT
ROOT
ATOM      1  Cl  UNL     1     106.133  98.011 112.149  1.00  0.00    -0.084 Cl
ATOM      2  C   UNL     1     105.520  94.738 114.342  1.00  0.00     0.038 A 
ATOM      3  C   UNL     1     105.893  93.710 113.489  1.00  0.00     0.128 A 
ATOM      4  C   UNL     1     105.589  96.064 113.943  1.00  0.00     0.034 A 
ATOM      5  C   UNL     1     106.345  94.017 112.206  1.00  0.00     0.048 A 
ATOM      6  C   UNL     1     106.040  96.370 112.660  1.00  0.00     0.041 A 
ATOM      7  C   UNL     1     106.420  95.347 111.791  1.00  0.00     0.024 A 
ENDROOT
BRANCH   2   8
ATOM      8  C   UNL     1     105.040  94.436 115.702  1.00  0.00     0.146 C 
ATOM      9  N   UNL     1     105.780  93.827 116.571  1.00  0.00    -0.170 NA
BRANCH   9  10
ATOM     10  N   UNL     1     105.173  93.640 117.755  1.00  0.00    -0.166 N 
ATOM     11  C   UNL     1     105.566  94.307 118.893  1.00  0.00     0.254 C 
ATOM     12  C   UNL     1     104.092  92.798 117.878  1.00  0.00     0.254 C 
ATOM     13  O   UNL     1     106.464  95.126 119.019  1.00  0.00    -0.272 OA
ATOM     14  C   UNL     1     104.654  93.847 120.010  1.00  0.00     0.106 C 
ATOM     15  O   UNL     1     103.543  92.136 117.008  1.00  0.00    -0.272 OA
ATOM     16  C   UNL     1     103.666  92.836 119.329  1.00  0.00     0.106 C 
ATOM     17  C   UNL     1     103.860  95.004 120.683  1.00  0.00     0.063 C 
ATOM     18  C   UNL     1     102.195  93.301 119.536  1.00  0.00     0.063 C 
ATOM     19  C   UNL     1     102.922  94.309 121.670  1.00  0.00    -0.036 A 
ATOM     20  C   UNL     1     102.979  95.638 119.608  1.00  0.00    -0.036 A 
ATOM     21  C   UNL     1     102.026  93.392 121.053  1.00  0.00    -0.036 A 
ATOM     22  C   UNL     1     102.086  94.724 118.993  1.00  0.00    -0.036 A 
ATOM     23  C   UNL     1     102.894  94.511 123.042  1.00  0.00     0.004 A 
ATOM     24  C   UNL     1     103.003  96.970 119.224  1.00  0.00     0.004 A 
ATOM     25  C   UNL     1     101.106  92.683 121.811  1.00  0.00     0.004 A 
ATOM     26  C   UNL     1     101.218  95.145 117.995  1.00  0.00     0.004 A 
ATOM     27  C   UNL     1     101.967  93.793 123.801  1.00  0.00     0.000 A 
ATOM     28  C   UNL     1     102.132  97.391 118.218  1.00  0.00     0.000 A 
ATOM     29  C   UNL     1     101.083  92.888 123.192  1.00  0.00     0.000 A 
ATOM     30  C   UNL     1     101.247  96.487 117.609  1.00  0.00     0.000 A 
ENDBRANCH   9  10
ENDBRANCH   2   8
BRANCH   3  31
ATOM     31  O   UNL     1     105.829  92.405 113.876  1.00  0.00    -0.493 OA
BRANCH  31  32
ATOM     32  C   UNL     1     104.905  91.569 113.181  1.00  0.00     0.226 C 
ATOM     33  C   UNL     1     104.470  90.447 114.099  1.00  0.00     0.049 C 
ENDBRANCH  31  32
ENDBRANCH   3  31
TORSDOF 4
ENDMDL
MODEL 10
REMARK VINA RESULT:      -7.3     13.631     15.852
REMARK SMILES CCOc1ccc(Cl)cc1/C=N/N1C(=O)[C@@H]2[C@H]3c4ccccc4[C@H](c4ccccc43)[C@@H]2C1=O
REMARK SMILES IDX 8 1 10 2 4 3 9 4 5 5 7 6 6 7 11 8 12 9 13 10 32 11 14 12
REMARK SMILES IDX 33 13 31 14 15 15 16 16 24 17 17 18 23 19 25 20 18 21 30 22
REMARK SMILES IDX 22 23 26 24 19 25 29 26 21 27 27 28 20 29 28 30 3 31 2 32
REMARK SMILES IDX 1 33
REMARK H PARENT
ROOT
ATOM      1  Cl  UNL     1     107.911  93.569 110.495  1.00  0.00    -0.084 Cl
ATOM      2  C   UNL     1     105.536  95.014 113.354  1.00  0.00     0.038 A 
ATOM      3  C   UNL     1     105.115  96.228 112.831  1.00  0.00     0.128 A 
ATOM      4  C   UNL     1     106.396  94.188 112.647  1.00  0.00     0.034 A 
ATOM      5  C   UNL     1     105.564  96.624 111.572  1.00  0.00     0.048 A 
ATOM      6  C   UNL     1     106.845  94.583 111.387  1.00  0.00     0.041 A 
ATOM      7  C   UNL     1     106.428  95.801 110.849  1.00  0.00     0.024 A 
ENDROOT
BRANCH   2   8
ATOM      8  C   UNL     1     105.073  94.577 114.683  1.00  0.00     0.146 C 
ATOM      9  N   UNL     1     105.896  94.186 115.601  1.00  0.00    -0.170 NA
BRANCH   9  10
ATOM     10  N   UNL     1     105.291  93.825 116.745  1.00  0.00    -0.166 N 
ATOM     11  C   UNL     1     105.216  94.667 117.831  1.00  0.00     0.254 C 
ATOM     12  C   UNL     1     104.674  92.602 116.871  1.00  0.00     0.254 C 
ATOM     13  O   UNL     1     105.649  95.805 117.939  1.00  0.00    -0.272 OA
ATOM     14  C   UNL     1     104.465  93.923 118.914  1.00  0.00     0.106 C 
ATOM     15  O   UNL     1     104.576  91.713 116.037  1.00  0.00    -0.272 OA
ATOM     16  C   UNL     1     104.101  92.539 118.270  1.00  0.00     0.106 C 
ATOM     17  C   UNL     1     103.173  94.651 119.388  1.00  0.00     0.063 C 
ATOM     18  C   UNL     1     102.561  92.318 118.304  1.00  0.00     0.063 C 
ATOM     19  C   UNL     1     102.516  93.676 120.366  1.00  0.00    -0.036 A 
ATOM     20  C   UNL     1     102.242  94.761 118.183  1.00  0.00    -0.036 A 
ATOM     21  C   UNL     1     102.187  92.421 119.783  1.00  0.00    -0.036 A 
ATOM     22  C   UNL     1     101.914  93.510 117.600  1.00  0.00    -0.036 A 
ATOM     23  C   UNL     1     102.237  93.931 121.701  1.00  0.00     0.004 A 
ATOM     24  C   UNL     1     101.735  95.940 117.657  1.00  0.00     0.004 A 
ATOM     25  C   UNL     1     101.580  91.428 120.537  1.00  0.00     0.004 A 
ATOM     26  C   UNL     1     101.078  93.441 116.495  1.00  0.00     0.004 A 
ATOM     27  C   UNL     1     101.627  92.926 122.456  1.00  0.00     0.000 A 
ATOM     28  C   UNL     1     100.896  95.868 116.544  1.00  0.00     0.000 A 
ATOM     29  C   UNL     1     101.302  91.688 121.880  1.00  0.00     0.000 A 
ATOM     30  C   UNL     1     100.570  94.630 115.968  1.00  0.00     0.000 A 
ENDBRANCH   9  10
ENDBRANCH   2   8
BRANCH   3  31
ATOM     31  O   UNL     1     104.269  97.045 113.522  1.00  0.00    -0.493 OA
BRANCH  31  32
ATOM     32  C   UNL     1     103.044  97.396 112.882  1.00  0.00     0.226 C 
ATOM     33  C   UNL     1     102.090  96.223 112.969  1.00  0.00     0.049 C 
ENDBRANCH  31  32
ENDBRANCH   3  31
TORSDOF 4
ENDMDL
MODEL 11
REMARK VINA RESULT:      -7.3     13.325     15.458
REMARK SMILES CCOc1ccc(Cl)cc1/C=N/N1C(=O)[C@@H]2[C@H]3c4ccccc4[C@H](c4ccccc43)[C@@H]2C1=O
REMARK SMILES IDX 8 1 10 2 4 3 9 4 5 5 7 6 6 7 11 8 12 9 13 10 32 11 14 12
REMARK SMILES IDX 33 13 31 14 15 15 16 16 24 17 17 18 23 19 25 20 18 21 30 22
REMARK SMILES IDX 22 23 26 24 19 25 29 26 21 27 27 28 20 29 28 30 3 31 2 32
REMARK SMILES IDX 1 33
REMARK H PARENT
ROOT
ATOM      1  Cl  UNL     1     107.928  93.542 110.868  1.00  0.00    -0.084 Cl
ATOM      2  C   UNL     1     105.546  95.104 113.658  1.00  0.00     0.038 A 
ATOM      3  C   UNL     1     105.052  96.247 113.048  1.00  0.00     0.128 A 
ATOM      4  C   UNL     1     106.431  94.264 112.999  1.00  0.00     0.034 A 
ATOM      5  C   UNL     1     105.453  96.558 111.749  1.00  0.00     0.048 A 
ATOM      6  C   UNL     1     106.832  94.575 111.700  1.00  0.00     0.041 A 
ATOM      7  C   UNL     1     106.343  95.722 111.074  1.00  0.00     0.024 A 
ENDROOT
BRANCH   2   8
ATOM      8  C   UNL     1     105.134  94.757 115.029  1.00  0.00     0.146 C 
ATOM      9  N   UNL     1     105.666  93.771 115.676  1.00  0.00    -0.170 NA
BRANCH   9  10
ATOM     10  N   UNL     1     105.165  93.606 116.911  1.00  0.00    -0.166 N 
ATOM     11  C   UNL     1     105.688  94.255 118.007  1.00  0.00     0.254 C 
ATOM     12  C   UNL     1     104.067  92.808 117.135  1.00  0.00     0.254 C 
ATOM     13  O   UNL     1     106.625  95.038 118.047  1.00  0.00    -0.272 OA
ATOM     14  C   UNL     1     104.866  93.831 119.204  1.00  0.00     0.106 C 
ATOM     15  O   UNL     1     103.415  92.170 116.321  1.00  0.00    -0.272 OA
ATOM     16  C   UNL     1     103.779  92.861 118.620  1.00  0.00     0.106 C 
ATOM     17  C   UNL     1     104.183  95.018 119.944  1.00  0.00     0.063 C 
ATOM     18  C   UNL     1     102.353  93.383 118.961  1.00  0.00     0.063 C 
ATOM     19  C   UNL     1     103.314  94.359 121.015  1.00  0.00    -0.036 A 
ATOM     20  C   UNL     1     103.233  95.687 118.954  1.00  0.00    -0.036 A 
ATOM     21  C   UNL     1     102.329  93.479 120.487  1.00  0.00    -0.036 A 
ATOM     22  C   UNL     1     102.251  94.810 118.426  1.00  0.00    -0.036 A 
ATOM     23  C   UNL     1     103.420  94.560 122.384  1.00  0.00     0.004 A 
ATOM     24  C   UNL     1     103.274  97.018 118.566  1.00  0.00     0.004 A 
ATOM     25  C   UNL     1     101.456  92.806 121.328  1.00  0.00     0.004 A 
ATOM     26  C   UNL     1     101.312  95.267 117.512  1.00  0.00     0.004 A 
ATOM     27  C   UNL     1     102.540  93.878 123.227  1.00  0.00     0.000 A 
ATOM     28  C   UNL     1     102.330  97.474 117.644  1.00  0.00     0.000 A 
ATOM     29  C   UNL     1     101.568  93.011 122.705  1.00  0.00     0.000 A 
ATOM     30  C   UNL     1     101.358  96.607 117.122  1.00  0.00     0.000 A 
ENDBRANCH   9  10
ENDBRANCH   2   8
BRANCH   3  31
ATOM     31  O   UNL     1     104.181  97.077 113.690  1.00  0.00    -0.493 OA
BRANCH  31  32
ATOM     32  C   UNL     1     102.904  97.268 113.085  1.00  0.00     0.226 C 
ATOM     33  C   UNL     1     101.994  96.127 113.485  1.00  0.00     0.049 C 
ENDBRANCH  31  32
ENDBRANCH   3  31
TORSDOF 4
ENDMDL
MODEL 12
REMARK VINA RESULT:      -7.3      2.889      8.936
REMARK SMILES CCOc1ccc(Cl)cc1/C=N/N1C(=O)[C@@H]2[C@H]3c4ccccc4[C@H](c4ccccc43)[C@@H]2C1=O
REMARK SMILES IDX 8 1 10 2 4 3 9 4 5 5 7 6 6 7 11 8 12 9 13 10 32 11 14 12
REMARK SMILES IDX 33 13 31 14 15 15 16 16 24 17 17 18 23 19 25 20 18 21 30 22
REMARK SMILES IDX 22 23 26 24 19 25 29 26 21 27 27 28 20 29 28 30 3 31 2 32
REMARK SMILES IDX 1 33
REMARK H PARENT
ROOT
ATOM      1  Cl  UNL     1     118.910  96.165 121.883  1.00  0.00    -0.084 Cl
ATOM      2  C   UNL     1     116.741  99.072 120.227  1.00  0.00     0.038 A 
ATOM      3  C   UNL     1     117.493  99.436 119.120  1.00  0.00     0.128 A 
ATOM      4  C   UNL     1     117.166  98.069 121.085  1.00  0.00     0.034 A 
ATOM      5  C   UNL     1     118.697  98.781 118.864  1.00  0.00     0.048 A 
ATOM      6  C   UNL     1     118.370  97.414 120.830  1.00  0.00     0.041 A 
ATOM      7  C   UNL     1     119.135  97.769 119.719  1.00  0.00     0.024 A 
ENDROOT
BRANCH   2   8
ATOM      8  C   UNL     1     115.466  99.752 120.515  1.00  0.00     0.146 C 
ATOM      9  N   UNL     1     114.551  99.209 121.252  1.00  0.00    -0.170 NA
BRANCH   9  10
ATOM     10  N   UNL     1     113.459  99.977 121.403  1.00  0.00    -0.166 N 
ATOM     11  C   UNL     1     113.328 100.867 122.444  1.00  0.00     0.254 C 
ATOM     12  C   UNL     1     112.430  99.940 120.490  1.00  0.00     0.254 C 
ATOM     13  O   UNL     1     114.120 101.103 123.344  1.00  0.00    -0.272 OA
ATOM     14  C   UNL     1     111.986 101.546 122.276  1.00  0.00     0.106 C 
ATOM     15  O   UNL     1     112.340  99.266 119.475  1.00  0.00    -0.272 OA
ATOM     16  C   UNL     1     111.384 100.926 120.967  1.00  0.00     0.106 C 
ATOM     17  C   UNL     1     112.083 103.094 122.142  1.00  0.00     0.063 C 
ATOM     18  C   UNL     1     111.068 102.048 119.936  1.00  0.00     0.063 C 
ATOM     19  C   UNL     1     110.652 103.549 121.851  1.00  0.00    -0.036 A 
ATOM     20  C   UNL     1     112.903 103.392 120.889  1.00  0.00    -0.036 A 
ATOM     21  C   UNL     1     110.106 102.985 120.665  1.00  0.00    -0.036 A 
ATOM     22  C   UNL     1     112.359 102.831 119.705  1.00  0.00    -0.036 A 
ATOM     23  C   UNL     1     109.906 104.425 122.627  1.00  0.00     0.004 A 
ATOM     24  C   UNL     1     114.076 104.132 120.846  1.00  0.00     0.004 A 
ATOM     25  C   UNL     1     108.818 103.302 120.259  1.00  0.00     0.004 A 
ATOM     26  C   UNL     1     112.989 103.011 118.481  1.00  0.00     0.004 A 
ATOM     27  C   UNL     1     108.609 104.739 122.214  1.00  0.00     0.000 A 
ATOM     28  C   UNL     1     114.708 104.310 119.615  1.00  0.00     0.000 A 
ATOM     29  C   UNL     1     108.071 104.183 121.043  1.00  0.00     0.000 A 
ATOM     30  C   UNL     1     114.171 103.755 118.443  1.00  0.00     0.000 A 
ENDBRANCH   9  10
ENDBRANCH   2   8
BRANCH   3  31
ATOM     31  O   UNL     1     117.080 100.421 118.273  1.00  0.00    -0.493 OA
BRANCH  31  32
ATOM     32  C   UNL     1     117.724 101.689 118.393  1.00  0.00     0.226 C 
ATOM     33  C   UNL     1     117.411 102.517 117.165  1.00  0.00     0.049 C 
ENDBRANCH  31  32
ENDBRANCH   3  31
TORSDOF 4
ENDMDL
MODEL 13
REMARK VINA RESULT:      -7.2      2.693      4.569
REMARK SMILES CCOc1ccc(Cl)cc1/C=N/N1C(=O)[C@@H]2[C@H]3c4ccccc4[C@H](c4ccccc43)[C@@H]2C1=O
REMARK SMILES IDX 8 1 10 2 4 3 9 4 5 5 7 6 6 7 11 8 12 9 13 10 32 11 14 12
REMARK SMILES IDX 33 13 31 14 15 15 16 16 24 17 17 18 23 19 25 20 18 21 30 22
REMARK SMILES IDX 22 23 26 24 19 25 29 26 21 27 27 28 20 29 28 30 3 31 2 32
REMARK SMILES IDX 1 33
REMARK H PARENT
ROOT
ATOM      1  Cl  UNL     1     110.347 103.241 119.875  1.00  0.00    -0.084 Cl
ATOM      2  C   UNL     1     111.990  99.741 120.848  1.00  0.00     0.038 A 
ATOM      3  C   UNL     1     110.926  99.031 121.385  1.00  0.00     0.128 A 
ATOM      4  C   UNL     1     111.825 101.036 120.381  1.00  0.00     0.034 A 
ATOM      5  C   UNL     1     109.669  99.631 121.457  1.00  0.00     0.048 A 
ATOM      6  C   UNL     1     110.569 101.635 120.452  1.00  0.00     0.041 A 
ATOM      7  C   UNL     1     109.490 100.933 120.989  1.00  0.00     0.024 A 
ENDROOT
BRANCH   2   8
ATOM      8  C   UNL     1     113.326  99.126 120.763  1.00  0.00     0.146 C 
ATOM      9  N   UNL     1     114.327  99.563 121.456  1.00  0.00    -0.170 NA
BRANCH   9  10
ATOM     10  N   UNL     1     115.464  98.878 121.247  1.00  0.00    -0.166 N 
ATOM     11  C   UNL     1     116.339  99.202 120.235  1.00  0.00     0.254 C 
ATOM     12  C   UNL     1     115.832  97.838 122.070  1.00  0.00     0.254 C 
ATOM     13  O   UNL     1     116.246 100.102 119.414  1.00  0.00    -0.272 OA
ATOM     14  C   UNL     1     117.491  98.226 120.319  1.00  0.00     0.106 C 
ATOM     15  O   UNL     1     115.244  97.399 123.047  1.00  0.00    -0.272 OA
ATOM     16  C   UNL     1     117.152  97.312 121.549  1.00  0.00     0.106 C 
ATOM     17  C   UNL     1     118.875  98.910 120.524  1.00  0.00     0.063 C 
ATOM     18  C   UNL     1     118.303  97.370 122.595  1.00  0.00     0.063 C 
ATOM     19  C   UNL     1     119.856  97.753 120.713  1.00  0.00    -0.036 A 
ATOM     20  C   UNL     1     118.819  99.664 121.851  1.00  0.00    -0.036 A 
ATOM     21  C   UNL     1     119.548  96.923 121.828  1.00  0.00    -0.036 A 
ATOM     22  C   UNL     1     118.512  98.837 122.963  1.00  0.00    -0.036 A 
ATOM     23  C   UNL     1     120.958  97.485 119.915  1.00  0.00     0.004 A 
ATOM     24  C   UNL     1     119.036 101.023 122.019  1.00  0.00     0.004 A 
ATOM     25  C   UNL     1     120.346  95.832 122.139  1.00  0.00     0.004 A 
ATOM     26  C   UNL     1     118.424  99.373 124.239  1.00  0.00     0.004 A 
ATOM     27  C   UNL     1     121.757  96.384 120.232  1.00  0.00     0.000 A 
ATOM     28  C   UNL     1     118.944 101.560 123.304  1.00  0.00     0.000 A 
ATOM     29  C   UNL     1     121.453  95.566 121.332  1.00  0.00     0.000 A 
ATOM     30  C   UNL     1     118.641 100.743 124.404  1.00  0.00     0.000 A 
ENDBRANCH   9  10
ENDBRANCH   2   8
BRANCH   3  31
ATOM     31  O   UNL     1     111.081  97.757 121.846  1.00  0.00    -0.493 OA
BRANCH  31  32
ATOM     32  C   UNL     1     110.363  96.731 121.165  1.00  0.00     0.226 C 
ATOM     33  C   UNL     1     111.341  95.883 120.381  1.00  0.00     0.049 C 
ENDBRANCH  31  32
ENDBRANCH   3  31
TORSDOF 4
ENDMDL
MODEL 14
REMARK VINA RESULT:      -7.2     12.739     15.533
REMARK SMILES CCOc1ccc(Cl)cc1/C=N/N1C(=O)[C@@H]2[C@H]3c4ccccc4[C@H](c4ccccc43)[C@@H]2C1=O
REMARK SMILES IDX 8 1 10 2 4 3 9 4 5 5 7 6 6 7 11 8 12 9 13 10 32 11 14 12
REMARK SMILES IDX 33 13 31 14 15 15 16 16 24 17 17 18 23 19 25 20 18 21 30 22
REMARK SMILES IDX 22 23 26 24 19 25 29 26 21 27 27 28 20 29 28 30 3 31 2 32
REMARK SMILES IDX 1 33
REMARK H PARENT
ROOT
ATOM      1  Cl  UNL     1     101.996  95.608 124.907  1.00  0.00    -0.084 Cl
ATOM      2  C   UNL     1     101.936  93.830 121.338  1.00  0.00     0.038 A 
ATOM      3  C   UNL     1     101.208  92.674 121.573  1.00  0.00     0.128 A 
ATOM      4  C   UNL     1     102.186  94.741 122.354  1.00  0.00     0.034 A 
ATOM      5  C   UNL     1     100.720  92.421 122.854  1.00  0.00     0.048 A 
ATOM      6  C   UNL     1     101.697  94.488 123.635  1.00  0.00     0.041 A 
ATOM      7  C   UNL     1     100.963  93.328 123.885  1.00  0.00     0.024 A 
ENDROOT
BRANCH   2   8
ATOM      8  C   UNL     1     102.462  94.117 119.991  1.00  0.00     0.146 C 
ATOM      9  N   UNL     1     101.695  94.159 118.951  1.00  0.00    -0.170 NA
BRANCH   9  10
ATOM     10  N   UNL     1     102.352  94.434 117.811  1.00  0.00    -0.166 N 
ATOM     11  C   UNL     1     102.568  95.724 117.383  1.00  0.00     0.254 C 
ATOM     12  C   UNL     1     102.882  93.430 117.033  1.00  0.00     0.254 C 
ATOM     13  O   UNL     1     102.232  96.767 117.923  1.00  0.00    -0.272 OA
ATOM     14  C   UNL     1     103.337  95.634 116.083  1.00  0.00     0.106 C 
ATOM     15  O   UNL     1     102.853  92.224 117.228  1.00  0.00    -0.272 OA
ATOM     16  C   UNL     1     103.548  94.097 115.849  1.00  0.00     0.106 C 
ATOM     17  C   UNL     1     104.711  96.365 116.119  1.00  0.00     0.063 C 
ATOM     18  C   UNL     1     105.066  93.775 115.724  1.00  0.00     0.063 C 
ATOM     19  C   UNL     1     105.361  96.035 114.776  1.00  0.00    -0.036 A 
ATOM     20  C   UNL     1     105.558  95.691 117.197  1.00  0.00    -0.036 A 
ATOM     21  C   UNL     1     105.552  94.642 114.562  1.00  0.00    -0.036 A 
ATOM     22  C   UNL     1     105.748  94.301 116.985  1.00  0.00    -0.036 A 
ATOM     23  C   UNL     1     105.754  96.958 113.817  1.00  0.00     0.004 A 
ATOM     24  C   UNL     1     106.114  96.320 118.300  1.00  0.00     0.004 A 
ATOM     25  C   UNL     1     106.135  94.178 113.392  1.00  0.00     0.004 A 
ATOM     26  C   UNL     1     106.495  93.545 117.877  1.00  0.00     0.004 A 
ATOM     27  C   UNL     1     106.339  96.485 112.640  1.00  0.00     0.000 A 
ATOM     28  C   UNL     1     106.863  95.556 119.197  1.00  0.00     0.000 A 
ATOM     29  C   UNL     1     106.527  95.110 112.430  1.00  0.00     0.000 A 
ATOM     30  C   UNL     1     107.052  94.181 118.988  1.00  0.00     0.000 A 
ENDBRANCH   9  10
ENDBRANCH   2   8
BRANCH   3  31
ATOM     31  O   UNL     1     100.959  91.775 120.578  1.00  0.00    -0.493 OA
BRANCH  31  32
ATOM     32  C   UNL     1     101.291  90.413 120.839  1.00  0.00     0.226 C 
ATOM     33  C   UNL     1     100.542  89.529 119.864  1.00  0.00     0.049 C 
ENDBRANCH  31  32
ENDBRANCH   3  31
TORSDOF 4
ENDMDL
MODEL 15
REMARK VINA RESULT:      -7.2     13.673     16.135
REMARK SMILES CCOc1ccc(Cl)cc1/C=N/N1C(=O)[C@@H]2[C@H]3c4ccccc4[C@H](c4ccccc43)[C@@H]2C1=O
REMARK SMILES IDX 8 1 10 2 4 3 9 4 5 5 7 6 6 7 11 8 12 9 13 10 32 11 14 12
REMARK SMILES IDX 33 13 31 14 15 15 16 16 24 17 17 18 23 19 25 20 18 21 30 22
REMARK SMILES IDX 22 23 26 24 19 25 29 26 21 27 27 28 20 29 28 30 3 31 2 32
REMARK SMILES IDX 1 33
REMARK H PARENT
ROOT
ATOM      1  Cl  UNL     1     101.528  93.916 124.360  1.00  0.00    -0.084 Cl
ATOM      2  C   UNL     1     102.120  93.200 120.482  1.00  0.00     0.038 A 
ATOM      3  C   UNL     1     101.709  91.883 120.337  1.00  0.00     0.128 A 
ATOM      4  C   UNL     1     102.070  93.836 121.713  1.00  0.00     0.034 A 
ATOM      5  C   UNL     1     101.237  91.187 121.450  1.00  0.00     0.048 A 
ATOM      6  C   UNL     1     101.598  93.140 122.826  1.00  0.00     0.041 A 
ATOM      7  C   UNL     1     101.181  91.815 122.694  1.00  0.00     0.024 A 
ENDROOT
BRANCH   2   8
ATOM      8  C   UNL     1     102.621  93.954 119.320  1.00  0.00     0.146 C 
ATOM      9  N   UNL     1     102.723  95.243 119.331  1.00  0.00    -0.170 NA
BRANCH   9  10
ATOM     10  N   UNL     1     103.199  95.754 118.183  1.00  0.00    -0.166 N 
ATOM     11  C   UNL     1     104.542  95.752 117.881  1.00  0.00     0.254 C 
ATOM     12  C   UNL     1     102.354  96.267 117.226  1.00  0.00     0.254 C 
ATOM     13  O   UNL     1     105.467  95.317 118.550  1.00  0.00    -0.272 OA
ATOM     14  C   UNL     1     104.688  96.395 116.519  1.00  0.00     0.106 C 
ATOM     15  O   UNL     1     101.134  96.338 117.252  1.00  0.00    -0.272 OA
ATOM     16  C   UNL     1     103.221  96.739 116.080  1.00  0.00     0.106 C 
ATOM     17  C   UNL     1     105.362  95.471 115.463  1.00  0.00     0.063 C 
ATOM     18  C   UNL     1     102.891  96.053 114.723  1.00  0.00     0.063 C 
ATOM     19  C   UNL     1     105.285  96.258 114.154  1.00  0.00    -0.036 A 
ATOM     20  C   UNL     1     104.468  94.245 115.293  1.00  0.00    -0.036 A 
ATOM     21  C   UNL     1     103.956  96.572 113.756  1.00  0.00    -0.036 A 
ATOM     22  C   UNL     1     103.142  94.556 114.897  1.00  0.00    -0.036 A 
ATOM     23  C   UNL     1     106.367  96.655 113.381  1.00  0.00     0.004 A 
ATOM     24  C   UNL     1     104.855  92.928 115.494  1.00  0.00     0.004 A 
ATOM     25  C   UNL     1     103.715  97.278 112.587  1.00  0.00     0.004 A 
ATOM     26  C   UNL     1     102.207  93.550 114.701  1.00  0.00     0.004 A 
ATOM     27  C   UNL     1     106.119  97.368 112.206  1.00  0.00     0.000 A 
ATOM     28  C   UNL     1     103.911  91.918 115.299  1.00  0.00     0.000 A 
ATOM     29  C   UNL     1     104.807  97.676 111.814  1.00  0.00     0.000 A 
ATOM     30  C   UNL     1     102.599  92.226 114.907  1.00  0.00     0.000 A 
ENDBRANCH   9  10
ENDBRANCH   2   8
BRANCH   3  31
ATOM     31  O   UNL     1     101.755  91.252 119.130  1.00  0.00    -0.493 OA
BRANCH  31  32
ATOM     32  C   UNL     1     100.509  90.866 118.554  1.00  0.00     0.226 C 
ATOM     33  C   UNL     1     100.116  91.884 117.504  1.00  0.00     0.049 C 
ENDBRANCH  31  32
ENDBRANCH   3  31
TORSDOF 4
ENDMDL
