MODEL 1
REMARK VINA RESULT:      -8.4      0.000      0.000
REMARK SMILES C1=Nc2nc(-c3cccc(-c4ccc5cccnc5n4)n3)ccc2CC1
REMARK SMILES IDX 21 1 6 2 10 3 7 4 9 5 8 6 5 7 4 8 3 9 2 10 24 11 22 12 1 13
REMARK SMILES IDX 25 14 23 15 26 16 11 17 20 18 12 19 19 20 13 21 18 22 14 23
REMARK SMILES IDX 17 24 15 25 16 26
REMARK H PARENT
ROOT
ATOM      1  N   UNL     1     118.180  98.112 120.216  1.00  0.00    -0.245 NA
ATOM      2  C   UNL     1     119.065  99.037 119.779  1.00  0.00     0.089 A 
ATOM      3  C   UNL     1     118.611  96.832 120.240  1.00  0.00     0.089 A 
ATOM      4  C   UNL     1     120.355  98.742 119.368  1.00  0.00     0.031 A 
ATOM      5  C   UNL     1     119.880  96.433 119.849  1.00  0.00     0.031 A 
ATOM      6  C   UNL     1     120.762  97.413 119.406  1.00  0.00     0.005 A 
ENDROOT
BRANCH   2   7
ATOM      7  C   UNL     1     118.573 100.394 119.765  1.00  0.00     0.091 A 
ATOM      8  N   UNL     1     117.982 100.771 118.608  1.00  0.00    -0.227 NA
ATOM      9  C   UNL     1     117.506 102.038 118.544  1.00  0.00     0.155 A 
ATOM     10  N   UNL     1     116.882 102.381 117.329  1.00  0.00    -0.241 NA
ATOM     11  C   UNL     1     117.606 102.940 119.606  1.00  0.00    -0.003 A 
ATOM     12  C   UNL     1     118.708 101.214 120.871  1.00  0.00     0.031 A 
ATOM     13  C   UNL     1     116.651 103.636 117.095  1.00  0.00     0.086 C 
ATOM     14  C   UNL     1     117.010 104.308 119.473  1.00  0.00     0.045 C 
ATOM     15  C   UNL     1     118.208 102.507 120.787  1.00  0.00     0.010 A 
ATOM     16  C   UNL     1     117.041 104.757 118.020  1.00  0.00     0.053 C 
ENDBRANCH   2   7
BRANCH   3  17
ATOM     17  C   UNL     1     117.643  95.871 120.712  1.00  0.00     0.091 A 
ATOM     18  N   UNL     1     117.022  96.209 121.867  1.00  0.00    -0.226 NA
ATOM     19  C   UNL     1     117.394  94.711 120.013  1.00  0.00     0.031 A 
ATOM     20  C   UNL     1     116.107  95.379 122.383  1.00  0.00     0.159 A 
ATOM     21  C   UNL     1     116.450  93.847 120.539  1.00  0.00     0.014 A 
ATOM     22  N   UNL     1     115.494  95.715 123.527  1.00  0.00    -0.237 NA
ATOM     23  C   UNL     1     115.793  94.172 121.735  1.00  0.00     0.019 A 
ATOM     24  C   UNL     1     114.568  94.877 124.050  1.00  0.00     0.113 A 
ATOM     25  C   UNL     1     114.829  93.323 122.298  1.00  0.00     0.013 A 
ATOM     26  C   UNL     1     114.201  93.677 123.480  1.00  0.00     0.021 A 
ENDBRANCH   3  17
TORSDOF 2
ENDMDL
MODEL 2
REMARK VINA RESULT:      -8.1      0.309      8.008
REMARK SMILES C1=Nc2nc(-c3cccc(-c4ccc5cccnc5n4)n3)ccc2CC1
REMARK SMILES IDX 21 1 6 2 10 3 7 4 9 5 8 6 5 7 4 8 3 9 2 10 24 11 22 12 1 13
REMARK SMILES IDX 25 14 23 15 26 16 11 17 20 18 12 19 19 20 13 21 18 22 14 23
REMARK SMILES IDX 17 24 15 25 16 26
REMARK H PARENT
ROOT
ATOM      1  N   UNL     1     118.056  98.146 120.256  1.00  0.00    -0.245 NA
ATOM      2  C   UNL     1     118.460  96.857 120.312  1.00  0.00     0.089 A 
ATOM      3  C   UNL     1     118.950  99.036 119.770  1.00  0.00     0.089 A 
ATOM      4  C   UNL     1     119.710  96.418 119.908  1.00  0.00     0.031 A 
ATOM      5  C   UNL     1     120.224  98.699 119.341  1.00  0.00     0.031 A 
ATOM      6  C   UNL     1     120.603  97.363 119.414  1.00  0.00     0.005 A 
ENDROOT
BRANCH   2   7
ATOM      7  C   UNL     1     117.482  95.933 120.836  1.00  0.00     0.091 A 
ATOM      8  N   UNL     1     116.717  96.425 121.837  1.00  0.00    -0.227 NA
ATOM      9  C   UNL     1     115.786  95.595 122.365  1.00  0.00     0.155 A 
ATOM     10  N   UNL     1     114.998  96.154 123.390  1.00  0.00    -0.241 NA
ATOM     11  C   UNL     1     115.599  94.284 121.920  1.00  0.00    -0.003 A 
ATOM     12  C   UNL     1     117.363  94.653 120.325  1.00  0.00     0.031 A 
ATOM     13  C   UNL     1     114.286  95.353 124.119  1.00  0.00     0.086 C 
ATOM     14  C   UNL     1     114.513  93.446 122.523  1.00  0.00     0.045 C 
ATOM     15  C   UNL     1     116.398  93.820 120.876  1.00  0.00     0.010 A 
ATOM     16  C   UNL     1     114.272  93.855 123.968  1.00  0.00     0.053 C 
ENDBRANCH   2   7
BRANCH   3  17
ATOM     17  C   UNL     1     118.487 100.402 119.724  1.00  0.00     0.091 A 
ATOM     18  N   UNL     1     117.925 100.773 118.548  1.00  0.00    -0.226 NA
ATOM     19  C   UNL     1     118.621 101.236 120.812  1.00  0.00     0.031 A 
ATOM     20  C   UNL     1     117.466 102.022 118.409  1.00  0.00     0.159 A 
ATOM     21  C   UNL     1     118.149 102.529 120.677  1.00  0.00     0.014 A 
ATOM     22  N   UNL     1     116.911 102.388 117.245  1.00  0.00    -0.237 NA
ATOM     23  C   UNL     1     117.564 102.940 119.470  1.00  0.00     0.019 A 
ATOM     24  C   UNL     1     116.446 103.651 117.103  1.00  0.00     0.113 A 
ATOM     25  C   UNL     1     117.074 104.242 119.297  1.00  0.00     0.013 A 
ATOM     26  C   UNL     1     116.503 104.611 118.090  1.00  0.00     0.021 A 
ENDBRANCH   3  17
TORSDOF 2
ENDMDL
MODEL 3
REMARK VINA RESULT:      -8.1     12.265     15.938
REMARK SMILES C1=Nc2nc(-c3cccc(-c4ccc5cccnc5n4)n3)ccc2CC1
REMARK SMILES IDX 21 1 6 2 10 3 7 4 9 5 8 6 5 7 4 8 3 9 2 10 24 11 22 12 1 13
REMARK SMILES IDX 25 14 23 15 26 16 11 17 20 18 12 19 19 20 13 21 18 22 14 23
REMARK SMILES IDX 17 24 15 25 16 26
REMARK H PARENT
ROOT
ATOM      1  N   UNL     1     105.114  93.462 117.396  1.00  0.00    -0.245 NA
ATOM      2  C   UNL     1     105.040  93.411 118.745  1.00  0.00     0.089 A 
ATOM      3  C   UNL     1     106.285  93.892 116.874  1.00  0.00     0.089 A 
ATOM      4  C   UNL     1     106.077  93.767 119.593  1.00  0.00     0.031 A 
ATOM      5  C   UNL     1     107.380  94.271 117.634  1.00  0.00     0.031 A 
ATOM      6  C   UNL     1     107.265  94.204 119.019  1.00  0.00     0.005 A 
ENDROOT
BRANCH   2   7
ATOM      7  C   UNL     1     103.777  92.948 119.270  1.00  0.00     0.091 A 
ATOM      8  N   UNL     1     103.475  93.405 120.506  1.00  0.00    -0.227 NA
ATOM      9  C   UNL     1     102.301  92.997 121.044  1.00  0.00     0.155 A 
ATOM     10  N   UNL     1     102.017  93.513 122.323  1.00  0.00    -0.241 NA
ATOM     11  C   UNL     1     101.419  92.142 120.379  1.00  0.00    -0.003 A 
ATOM     12  C   UNL     1     102.963  92.107 118.532  1.00  0.00     0.031 A 
ATOM     13  C   UNL     1     101.062  92.962 123.006  1.00  0.00     0.086 C 
ATOM     14  C   UNL     1     100.116  91.776 121.022  1.00  0.00     0.045 C 
ATOM     15  C   UNL     1     101.761  91.705 119.099  1.00  0.00     0.010 A 
ATOM     16  C   UNL     1     100.257  91.780 122.537  1.00  0.00     0.053 C 
ENDBRANCH   2   7
BRANCH   3  17
ATOM     17  C   UNL     1     106.330  93.934 115.432  1.00  0.00     0.091 A 
ATOM     18  N   UNL     1     106.223  95.173 114.896  1.00  0.00    -0.226 NA
ATOM     19  C   UNL     1     106.474  92.782 114.691  1.00  0.00     0.031 A 
ATOM     20  C   UNL     1     106.254  95.313 113.565  1.00  0.00     0.159 A 
ATOM     21  C   UNL     1     106.507  92.918 113.315  1.00  0.00     0.014 A 
ATOM     22  N   UNL     1     106.147  96.540 113.035  1.00  0.00    -0.237 NA
ATOM     23  C   UNL     1     106.397  94.189 112.733  1.00  0.00     0.019 A 
ATOM     24  C   UNL     1     106.178  96.683 111.690  1.00  0.00     0.113 A 
ATOM     25  C   UNL     1     106.427  94.366 111.342  1.00  0.00     0.013 A 
ATOM     26  C   UNL     1     106.315  95.636 110.804  1.00  0.00     0.021 A 
ENDBRANCH   3  17
TORSDOF 2
ENDMDL
MODEL 4
REMARK VINA RESULT:      -7.8     11.868     14.241
REMARK SMILES C1=Nc2nc(-c3cccc(-c4ccc5cccnc5n4)n3)ccc2CC1
REMARK SMILES IDX 21 1 6 2 10 3 7 4 9 5 8 6 5 7 4 8 3 9 2 10 24 11 22 12 1 13
REMARK SMILES IDX 25 14 23 15 26 16 11 17 20 18 12 19 19 20 13 21 18 22 14 23
REMARK SMILES IDX 17 24 15 25 16 26
REMARK H PARENT
ROOT
ATOM      1  N   UNL     1     105.321  96.866 117.146  1.00  0.00    -0.245 NA
ATOM      2  C   UNL     1     105.415  95.519 117.062  1.00  0.00     0.089 A 
ATOM      3  C   UNL     1     104.818  97.362 118.298  1.00  0.00     0.089 A 
ATOM      4  C   UNL     1     105.033  94.651 118.072  1.00  0.00     0.031 A 
ATOM      5  C   UNL     1     104.407  96.580 119.366  1.00  0.00     0.031 A 
ATOM      6  C   UNL     1     104.520  95.199 119.242  1.00  0.00     0.005 A 
ENDROOT
BRANCH   2   7
ATOM      7  C   UNL     1     105.955  95.021 115.819  1.00  0.00     0.091 A 
ATOM      8  N   UNL     1     105.781  95.841 114.757  1.00  0.00    -0.227 NA
ATOM      9  C   UNL     1     106.268  95.417 113.566  1.00  0.00     0.155 A 
ATOM     10  N   UNL     1     106.082  96.310 112.493  1.00  0.00    -0.241 NA
ATOM     11  C   UNL     1     106.923  94.194 113.407  1.00  0.00    -0.003 A 
ATOM     12  C   UNL     1     106.599  93.799 115.759  1.00  0.00     0.031 A 
ATOM     13  C   UNL     1     106.271  95.865 111.289  1.00  0.00     0.086 C 
ATOM     14  C   UNL     1     107.476  93.820 112.065  1.00  0.00     0.045 C 
ATOM     15  C   UNL     1     107.095  93.385 114.530  1.00  0.00     0.010 A 
ATOM     16  C   UNL     1     106.640  94.444 110.958  1.00  0.00     0.053 C 
ENDBRANCH   2   7
BRANCH   3  17
ATOM     17  C   UNL     1     104.732  98.802 118.354  1.00  0.00     0.091 A 
ATOM     18  N   UNL     1     105.765  99.410 118.984  1.00  0.00    -0.226 NA
ATOM     19  C   UNL     1     103.664  99.472 117.799  1.00  0.00     0.031 A 
ATOM     20  C   UNL     1     105.772 100.745 119.087  1.00  0.00     0.159 A 
ATOM     21  C   UNL     1     103.664 100.852 117.900  1.00  0.00     0.014 A 
ATOM     22  N   UNL     1     106.795 101.346 119.711  1.00  0.00    -0.237 NA
ATOM     23  C   UNL     1     104.721 101.507 118.548  1.00  0.00     0.019 A 
ATOM     24  C   UNL     1     106.805 102.695 119.815  1.00  0.00     0.113 A 
ATOM     25  C   UNL     1     104.756 102.904 118.669  1.00  0.00     0.013 A 
ATOM     26  C   UNL     1     105.816 103.516 119.316  1.00  0.00     0.021 A 
ENDBRANCH   3  17
TORSDOF 2
ENDMDL
MODEL 5
REMARK VINA RESULT:      -7.8     13.099     14.739
REMARK SMILES C1=Nc2nc(-c3cccc(-c4ccc5cccnc5n4)n3)ccc2CC1
REMARK SMILES IDX 21 1 6 2 10 3 7 4 9 5 8 6 5 7 4 8 3 9 2 10 24 11 22 12 1 13
REMARK SMILES IDX 25 14 23 15 26 16 11 17 20 18 12 19 19 20 13 21 18 22 14 23
REMARK SMILES IDX 17 24 15 25 16 26
REMARK H PARENT
ROOT
ATOM      1  N   UNL     1     104.572  94.330 117.585  1.00  0.00    -0.245 NA
ATOM      2  C   UNL     1     105.369  95.237 116.974  1.00  0.00     0.089 A 
ATOM      3  C   UNL     1     104.041  94.700 118.771  1.00  0.00     0.089 A 
ATOM      4  C   UNL     1     105.657  96.489 117.492  1.00  0.00     0.031 A 
ATOM      5  C   UNL     1     104.268  95.927 119.374  1.00  0.00     0.031 A 
ATOM      6  C   UNL     1     105.093  96.833 118.715  1.00  0.00     0.005 A 
ENDROOT
BRANCH   2   7
ATOM      7  C   UNL     1     105.920  94.811 115.709  1.00  0.00     0.091 A 
ATOM      8  N   UNL     1     105.763  95.694 114.697  1.00  0.00    -0.227 NA
ATOM      9  C   UNL     1     106.260  95.339 113.488  1.00  0.00     0.155 A 
ATOM     10  N   UNL     1     106.093  96.296 112.468  1.00  0.00    -0.241 NA
ATOM     11  C   UNL     1     106.910  94.123 113.262  1.00  0.00    -0.003 A 
ATOM     12  C   UNL     1     106.556  93.590 115.583  1.00  0.00     0.031 A 
ATOM     13  C   UNL     1     106.293  95.923 111.242  1.00  0.00     0.086 C 
ATOM     14  C   UNL     1     107.476  93.826 111.907  1.00  0.00     0.045 C 
ATOM     15  C   UNL     1     107.064  93.247 114.337  1.00  0.00     0.010 A 
ATOM     16  C   UNL     1     106.656  94.521 110.830  1.00  0.00     0.053 C 
ENDBRANCH   2   7
BRANCH   3  17
ATOM     17  C   UNL     1     103.196  93.710 119.395  1.00  0.00     0.091 A 
ATOM     18  N   UNL     1     102.657  94.087 120.579  1.00  0.00    -0.226 NA
ATOM     19  C   UNL     1     102.978  92.486 118.802  1.00  0.00     0.031 A 
ATOM     20  C   UNL     1     101.859  93.234 121.234  1.00  0.00     0.159 A 
ATOM     21  C   UNL     1     102.154  91.599 119.472  1.00  0.00     0.014 A 
ATOM     22  N   UNL     1     101.326  93.608 122.406  1.00  0.00    -0.237 NA
ATOM     23  C   UNL     1     101.583  91.963 120.700  1.00  0.00     0.019 A 
ATOM     24  C   UNL     1     100.519  92.748 123.069  1.00  0.00     0.113 A 
ATOM     25  C   UNL     1     100.743  91.092 121.408  1.00  0.00     0.013 A 
ATOM     26  C   UNL     1     100.198  91.486 122.618  1.00  0.00     0.021 A 
ENDBRANCH   3  17
TORSDOF 2
ENDMDL
MODEL 6
REMARK VINA RESULT:      -7.7     13.110     14.726
REMARK SMILES C1=Nc2nc(-c3cccc(-c4ccc5cccnc5n4)n3)ccc2CC1
REMARK SMILES IDX 21 1 6 2 10 3 7 4 9 5 8 6 5 7 4 8 3 9 2 10 24 11 22 12 1 13
REMARK SMILES IDX 25 14 23 15 26 16 11 17 20 18 12 19 19 20 13 21 18 22 14 23
REMARK SMILES IDX 17 24 15 25 16 26
REMARK H PARENT
ROOT
ATOM      1  N   UNL     1     104.581  94.916 117.655  1.00  0.00    -0.245 NA
ATOM      2  C   UNL     1     105.247  95.791 116.867  1.00  0.00     0.089 A 
ATOM      3  C   UNL     1     104.004  95.427 118.765  1.00  0.00     0.089 A 
ATOM      4  C   UNL     1     105.363  97.145 117.136  1.00  0.00     0.031 A 
ATOM      5  C   UNL     1     104.062  96.764 119.124  1.00  0.00     0.031 A 
ATOM      6  C   UNL     1     104.756  97.633 118.288  1.00  0.00     0.005 A 
ENDROOT
BRANCH   2   7
ATOM      7  C   UNL     1     105.852  95.213 115.690  1.00  0.00     0.091 A 
ATOM      8  N   UNL     1     105.692  95.935 114.558  1.00  0.00    -0.227 NA
ATOM      9  C   UNL     1     106.239  95.433 113.425  1.00  0.00     0.155 A 
ATOM     10  N   UNL     1     106.065  96.226 112.274  1.00  0.00    -0.241 NA
ATOM     11  C   UNL     1     106.941  94.226 113.392  1.00  0.00    -0.003 A 
ATOM     12  C   UNL     1     106.539  94.014 115.756  1.00  0.00     0.031 A 
ATOM     13  C   UNL     1     106.316  95.692 111.120  1.00  0.00     0.086 C 
ATOM     14  C   UNL     1     107.559  93.764 112.107  1.00  0.00     0.045 C 
ATOM     15  C   UNL     1     107.097  93.520 114.584  1.00  0.00     0.010 A 
ATOM     16  C   UNL     1     106.746  94.263 110.923  1.00  0.00     0.053 C 
ENDBRANCH   2   7
BRANCH   3  17
ATOM     17  C   UNL     1     103.301  94.468 119.583  1.00  0.00     0.091 A 
ATOM     18  N   UNL     1     102.834  93.385 118.916  1.00  0.00    -0.226 NA
ATOM     19  C   UNL     1     103.138  94.671 120.935  1.00  0.00     0.031 A 
ATOM     20  C   UNL     1     102.168  92.440 119.591  1.00  0.00     0.159 A 
ATOM     21  C   UNL     1     102.450  93.699 121.641  1.00  0.00     0.014 A 
ATOM     22  N   UNL     1     101.706  91.369 118.930  1.00  0.00    -0.237 NA
ATOM     23  C   UNL     1     101.955  92.568 120.975  1.00  0.00     0.019 A 
ATOM     24  C   UNL     1     101.033  90.413 119.610  1.00  0.00     0.113 A 
ATOM     25  C   UNL     1     101.255  91.562 121.656  1.00  0.00     0.013 A 
ATOM     26  C   UNL     1     100.781  90.460 120.964  1.00  0.00     0.021 A 
ENDBRANCH   3  17
TORSDOF 2
ENDMDL
MODEL 7
REMARK VINA RESULT:      -7.6     13.087     16.043
REMARK SMILES C1=Nc2nc(-c3cccc(-c4ccc5cccnc5n4)n3)ccc2CC1
REMARK SMILES IDX 21 1 6 2 10 3 7 4 9 5 8 6 5 7 4 8 3 9 2 10 24 11 22 12 1 13
REMARK SMILES IDX 25 14 23 15 26 16 11 17 20 18 12 19 19 20 13 21 18 22 14 23
REMARK SMILES IDX 17 24 15 25 16 26
REMARK H PARENT
ROOT
ATOM      1  N   UNL     1     104.578  94.814 117.693  1.00  0.00    -0.245 NA
ATOM      2  C   UNL     1     104.030  95.334 118.816  1.00  0.00     0.089 A 
ATOM      3  C   UNL     1     105.263  95.673 116.906  1.00  0.00     0.089 A 
ATOM      4  C   UNL     1     104.135  96.665 119.185  1.00  0.00     0.031 A 
ATOM      5  C   UNL     1     105.424  97.021 117.185  1.00  0.00     0.031 A 
ATOM      6  C   UNL     1     104.847  97.518 118.349  1.00  0.00     0.005 A 
ENDROOT
BRANCH   2   7
ATOM      7  C   UNL     1     103.306  94.391 119.634  1.00  0.00     0.091 A 
ATOM      8  N   UNL     1     102.869  93.291 118.980  1.00  0.00    -0.227 NA
ATOM      9  C   UNL     1     102.181  92.376 119.704  1.00  0.00     0.155 A 
ATOM     10  N   UNL     1     101.763  91.238 118.988  1.00  0.00    -0.241 NA
ATOM     11  C   UNL     1     101.914  92.532 121.066  1.00  0.00    -0.003 A 
ATOM     12  C   UNL     1     103.099  94.626 120.982  1.00  0.00     0.031 A 
ATOM     13  C   UNL     1     100.878  90.463 119.535  1.00  0.00     0.086 C 
ATOM     14  C   UNL     1     101.188  91.451 121.807  1.00  0.00     0.045 C 
ATOM     15  C   UNL     1     102.395  93.674 121.707  1.00  0.00     0.010 A 
ATOM     16  C   UNL     1     100.238  90.719 120.873  1.00  0.00     0.053 C 
ENDBRANCH   2   7
BRANCH   3  17
ATOM     17  C   UNL     1     105.834  95.087 115.717  1.00  0.00     0.091 A 
ATOM     18  N   UNL     1     105.495  95.703 114.559  1.00  0.00    -0.226 NA
ATOM     19  C   UNL     1     106.656  93.985 115.794  1.00  0.00     0.031 A 
ATOM     20  C   UNL     1     105.977  95.230 113.404  1.00  0.00     0.159 A 
ATOM     21  C   UNL     1     107.159  93.489 114.603  1.00  0.00     0.014 A 
ATOM     22  N   UNL     1     105.641  95.840 112.258  1.00  0.00    -0.237 NA
ATOM     23  C   UNL     1     106.824  94.107 113.390  1.00  0.00     0.019 A 
ATOM     24  C   UNL     1     106.127  95.363 111.089  1.00  0.00     0.113 A 
ATOM     25  C   UNL     1     107.313  93.634 112.164  1.00  0.00     0.013 A 
ATOM     26  C   UNL     1     106.961  94.271 110.986  1.00  0.00     0.021 A 
ENDBRANCH   3  17
TORSDOF 2
ENDMDL
MODEL 8
REMARK VINA RESULT:      -7.5     11.824     13.345
REMARK SMILES C1=Nc2nc(-c3cccc(-c4ccc5cccnc5n4)n3)ccc2CC1
REMARK SMILES IDX 21 1 6 2 10 3 7 4 9 5 8 6 5 7 4 8 3 9 2 10 24 11 22 12 1 13
REMARK SMILES IDX 25 14 23 15 26 16 11 17 20 18 12 19 19 20 13 21 18 22 14 23
REMARK SMILES IDX 17 24 15 25 16 26
REMARK H PARENT
ROOT
ATOM      1  N   UNL     1     105.406  96.892 117.195  1.00  0.00    -0.245 NA
ATOM      2  C   UNL     1     104.945  97.403 118.359  1.00  0.00     0.089 A 
ATOM      3  C   UNL     1     105.469  95.544 117.113  1.00  0.00     0.089 A 
ATOM      4  C   UNL     1     104.546  96.633 119.440  1.00  0.00     0.031 A 
ATOM      5  C   UNL     1     105.095  94.687 118.136  1.00  0.00     0.031 A 
ATOM      6  C   UNL     1     104.626  95.250 119.318  1.00  0.00     0.005 A 
ENDROOT
BRANCH   2   7
ATOM      7  C   UNL     1     104.891  98.844 118.414  1.00  0.00     0.091 A 
ATOM      8  N   UNL     1     105.951  99.429 119.017  1.00  0.00    -0.227 NA
ATOM      9  C   UNL     1     105.946 100.781 119.096  1.00  0.00     0.155 A 
ATOM     10  N   UNL     1     107.078 101.349 119.713  1.00  0.00    -0.241 NA
ATOM     11  C   UNL     1     104.908 101.566 118.590  1.00  0.00    -0.003 A 
ATOM     12  C   UNL     1     103.823  99.540 117.876  1.00  0.00     0.031 A 
ATOM     13  C   UNL     1     107.021 102.595 120.066  1.00  0.00     0.086 C 
ATOM     14  C   UNL     1     105.001 103.060 118.674  1.00  0.00     0.045 C 
ATOM     15  C   UNL     1     103.840 100.926 117.963  1.00  0.00     0.010 A 
ATOM     16  C   UNL     1     105.808 103.470 119.896  1.00  0.00     0.053 C 
ENDBRANCH   2   7
BRANCH   3  17
ATOM     17  C   UNL     1     105.964  95.033 115.858  1.00  0.00     0.091 A 
ATOM     18  N   UNL     1     105.586  95.739 114.766  1.00  0.00    -0.226 NA
ATOM     19  C   UNL     1     106.759  93.909 115.812  1.00  0.00     0.031 A 
ATOM     20  C   UNL     1     105.996  95.341 113.556  1.00  0.00     0.159 A 
ATOM     21  C   UNL     1     107.188  93.490 114.565  1.00  0.00     0.014 A 
ATOM     22  N   UNL     1     105.621  96.040 112.476  1.00  0.00    -0.237 NA
ATOM     23  C   UNL     1     106.811  94.203 113.418  1.00  0.00     0.019 A 
ATOM     24  C   UNL     1     106.035  95.639 111.252  1.00  0.00     0.113 A 
ATOM     25  C   UNL     1     107.226  93.809 112.138  1.00  0.00     0.013 A 
ATOM     26  C   UNL     1     106.833  94.538 111.029  1.00  0.00     0.021 A 
ENDBRANCH   3  17
TORSDOF 2
ENDMDL
MODEL 9
REMARK VINA RESULT:      -7.5     12.745     14.201
REMARK SMILES C1=Nc2nc(-c3cccc(-c4ccc5cccnc5n4)n3)ccc2CC1
REMARK SMILES IDX 21 1 6 2 10 3 7 4 9 5 8 6 5 7 4 8 3 9 2 10 24 11 22 12 1 13
REMARK SMILES IDX 25 14 23 15 26 16 11 17 20 18 12 19 19 20 13 21 18 22 14 23
REMARK SMILES IDX 17 24 15 25 16 26
REMARK H PARENT
ROOT
ATOM      1  N   UNL     1     105.444  96.391 116.762  1.00  0.00    -0.245 NA
ATOM      2  C   UNL     1     105.108  96.862 117.985  1.00  0.00     0.089 A 
ATOM      3  C   UNL     1     105.984  95.153 116.723  1.00  0.00     0.089 A 
ATOM      4  C   UNL     1     105.285  96.156 119.163  1.00  0.00     0.031 A 
ATOM      5  C   UNL     1     106.204  94.367 117.843  1.00  0.00     0.031 A 
ATOM      6  C   UNL     1     105.844  94.886 119.083  1.00  0.00     0.005 A 
ENDROOT
BRANCH   2   7
ATOM      7  C   UNL     1     104.534  98.187 117.991  1.00  0.00     0.091 A 
ATOM      8  N   UNL     1     103.216  98.235 117.691  1.00  0.00    -0.227 NA
ATOM      9  C   UNL     1     102.631  99.457 117.681  1.00  0.00     0.155 A 
ATOM     10  N   UNL     1     101.255  99.459 117.383  1.00  0.00    -0.241 NA
ATOM     11  C   UNL     1     103.329 100.634 117.962  1.00  0.00    -0.003 A 
ATOM     12  C   UNL     1     105.303  99.296 118.292  1.00  0.00     0.031 A 
ATOM     13  C   UNL     1     100.695 100.592 117.090  1.00  0.00     0.086 C 
ATOM     14  C   UNL     1     102.598 101.942 117.978  1.00  0.00     0.045 C 
ATOM     15  C   UNL     1     104.683 100.539 118.281  1.00  0.00     0.010 A 
ATOM     16  C   UNL     1     101.428 101.904 117.008  1.00  0.00     0.053 C 
ENDBRANCH   2   7
BRANCH   3  17
ATOM     17  C   UNL     1     106.331  94.681 115.404  1.00  0.00     0.091 A 
ATOM     18  N   UNL     1     106.068  95.552 114.400  1.00  0.00    -0.226 NA
ATOM     19  C   UNL     1     106.886  93.434 115.219  1.00  0.00     0.031 A 
ATOM     20  C   UNL     1     106.356  95.202 113.141  1.00  0.00     0.159 A 
ATOM     21  C   UNL     1     107.187  93.065 113.919  1.00  0.00     0.014 A 
ATOM     22  N   UNL     1     106.095  96.065 112.149  1.00  0.00    -0.237 NA
ATOM     23  C   UNL     1     106.924  93.947 112.861  1.00  0.00     0.019 A 
ATOM     24  C   UNL     1     106.385  95.713 110.874  1.00  0.00     0.113 A 
ATOM     25  C   UNL     1     107.216  93.608 111.532  1.00  0.00     0.013 A 
ATOM     26  C   UNL     1     106.942  94.505 110.514  1.00  0.00     0.021 A 
ENDBRANCH   3  17
TORSDOF 2
ENDMDL
MODEL 10
REMARK VINA RESULT:      -7.5     13.116     16.167
REMARK SMILES C1=Nc2nc(-c3cccc(-c4ccc5cccnc5n4)n3)ccc2CC1
REMARK SMILES IDX 21 1 6 2 10 3 7 4 9 5 8 6 5 7 4 8 3 9 2 10 24 11 22 12 1 13
REMARK SMILES IDX 25 14 23 15 26 16 11 17 20 18 12 19 19 20 13 21 18 22 14 23
REMARK SMILES IDX 17 24 15 25 16 26
REMARK H PARENT
ROOT
ATOM      1  N   UNL     1     104.539  94.453 117.396  1.00  0.00    -0.245 NA
ATOM      2  C   UNL     1     103.956  94.874 118.542  1.00  0.00     0.089 A 
ATOM      3  C   UNL     1     105.317  95.353 116.753  1.00  0.00     0.089 A 
ATOM      4  C   UNL     1     104.114  96.144 119.072  1.00  0.00     0.031 A 
ATOM      5  C   UNL     1     105.537  96.646 117.198  1.00  0.00     0.031 A 
ATOM      6  C   UNL     1     104.920  97.041 118.381  1.00  0.00     0.005 A 
ENDROOT
BRANCH   2   7
ATOM      7  C   UNL     1     103.132  93.889 119.203  1.00  0.00     0.091 A 
ATOM      8  N   UNL     1     102.512  94.329 120.322  1.00  0.00    -0.227 NA
ATOM      9  C   UNL     1     101.729  93.441 120.981  1.00  0.00     0.155 A 
ATOM     10  N   UNL     1     101.088  93.946 122.128  1.00  0.00    -0.241 NA
ATOM     11  C   UNL     1     101.551  92.124 120.553  1.00  0.00    -0.003 A 
ATOM     12  C   UNL     1     103.007  92.608 118.698  1.00  0.00     0.031 A 
ATOM     13  C   UNL     1     100.551  93.099 122.951  1.00  0.00     0.086 C 
ATOM     14  C   UNL     1     100.629  91.218 121.311  1.00  0.00     0.045 C 
ATOM     15  C   UNL     1     102.196  91.715 119.386  1.00  0.00     0.010 A 
ATOM     16  C   UNL     1     100.602  91.604 122.781  1.00  0.00     0.053 C 
ENDBRANCH   2   7
BRANCH   3  17
ATOM     17  C   UNL     1     105.924  94.873 115.535  1.00  0.00     0.091 A 
ATOM     18  N   UNL     1     105.536  95.522 114.411  1.00  0.00    -0.226 NA
ATOM     19  C   UNL     1     106.825  93.831 115.552  1.00  0.00     0.031 A 
ATOM     20  C   UNL     1     106.046  95.147 113.232  1.00  0.00     0.159 A 
ATOM     21  C   UNL     1     107.357  93.437 114.337  1.00  0.00     0.014 A 
ATOM     22  N   UNL     1     105.661  95.790 112.120  1.00  0.00    -0.237 NA
ATOM     23  C   UNL     1     106.972  94.092 113.158  1.00  0.00     0.019 A 
ATOM     24  C   UNL     1     106.175  95.412 110.927  1.00  0.00     0.113 A 
ATOM     25  C   UNL     1     107.490  93.721 111.909  1.00  0.00     0.013 A 
ATOM     26  C   UNL     1     107.086  94.391 110.766  1.00  0.00     0.021 A 
ENDBRANCH   3  17
TORSDOF 2
ENDMDL
MODEL 11
REMARK VINA RESULT:      -7.4     11.904     14.306
REMARK SMILES C1=Nc2nc(-c3cccc(-c4ccc5cccnc5n4)n3)ccc2CC1
REMARK SMILES IDX 21 1 6 2 10 3 7 4 9 5 8 6 5 7 4 8 3 9 2 10 24 11 22 12 1 13
REMARK SMILES IDX 25 14 23 15 26 16 11 17 20 18 12 19 19 20 13 21 18 22 14 23
REMARK SMILES IDX 17 24 15 25 16 26
REMARK H PARENT
ROOT
ATOM      1  N   UNL     1     105.247  97.899 117.190  1.00  0.00    -0.245 NA
ATOM      2  C   UNL     1     105.288  96.557 117.022  1.00  0.00     0.089 A 
ATOM      3  C   UNL     1     105.281  98.346 118.465  1.00  0.00     0.089 A 
ATOM      4  C   UNL     1     105.362  95.647 118.064  1.00  0.00     0.031 A 
ATOM      5  C   UNL     1     105.353  97.520 119.575  1.00  0.00     0.031 A 
ATOM      6  C   UNL     1     105.394  96.146 119.362  1.00  0.00     0.005 A 
ENDROOT
BRANCH   2   7
ATOM      7  C   UNL     1     105.250  96.113 115.649  1.00  0.00     0.091 A 
ATOM      8  N   UNL     1     106.204  95.214 115.317  1.00  0.00    -0.227 NA
ATOM      9  C   UNL     1     106.213  94.768 114.038  1.00  0.00     0.155 A 
ATOM     10  N   UNL     1     107.210  93.819 113.742  1.00  0.00    -0.241 NA
ATOM     11  C   UNL     1     105.292  95.198 113.080  1.00  0.00    -0.003 A 
ATOM     12  C   UNL     1     104.292  96.588 114.771  1.00  0.00     0.031 A 
ATOM     13  C   UNL     1     107.452  93.556 112.495  1.00  0.00     0.086 C 
ATOM     14  C   UNL     1     105.338  94.619 111.698  1.00  0.00     0.045 C 
ATOM     15  C   UNL     1     104.314  96.114 113.466  1.00  0.00     0.010 A 
ATOM     16  C   UNL     1     106.762  94.227 111.338  1.00  0.00     0.053 C 
ENDBRANCH   2   7
BRANCH   3  17
ATOM     17  C   UNL     1     105.235  99.781 118.608  1.00  0.00     0.091 A 
ATOM     18  N   UNL     1     106.303 100.324 119.242  1.00  0.00    -0.226 NA
ATOM     19  C   UNL     1     104.172 100.511 118.124  1.00  0.00     0.031 A 
ATOM     20  C   UNL     1     106.349 101.650 119.422  1.00  0.00     0.159 A 
ATOM     21  C   UNL     1     104.212 101.882 118.307  1.00  0.00     0.014 A 
ATOM     22  N   UNL     1     107.406 102.186 120.049  1.00  0.00    -0.237 NA
ATOM     23  C   UNL     1     105.305 102.470 118.960  1.00  0.00     0.019 A 
ATOM     24  C   UNL     1     107.455 103.526 120.233  1.00  0.00     0.113 A 
ATOM     25  C   UNL     1     105.382 103.855 119.162  1.00  0.00     0.013 A 
ATOM     26  C   UNL     1     106.477 104.400 119.812  1.00  0.00     0.021 A 
ENDBRANCH   3  17
TORSDOF 2
ENDMDL
MODEL 12
REMARK VINA RESULT:      -7.2     12.044     13.378
REMARK SMILES C1=Nc2nc(-c3cccc(-c4ccc5cccnc5n4)n3)ccc2CC1
REMARK SMILES IDX 21 1 6 2 10 3 7 4 9 5 8 6 5 7 4 8 3 9 2 10 24 11 22 12 1 13
REMARK SMILES IDX 25 14 23 15 26 16 11 17 20 18 12 19 19 20 13 21 18 22 14 23
REMARK SMILES IDX 17 24 15 25 16 26
REMARK H PARENT
ROOT
ATOM      1  N   UNL     1     105.166  97.864 116.927  1.00  0.00    -0.245 NA
ATOM      2  C   UNL     1     105.049  98.236 118.222  1.00  0.00     0.089 A 
ATOM      3  C   UNL     1     105.161  96.535 116.681  1.00  0.00     0.089 A 
ATOM      4  C   UNL     1     104.926  97.346 119.277  1.00  0.00     0.031 A 
ATOM      5  C   UNL     1     105.045  95.564 117.664  1.00  0.00     0.031 A 
ATOM      6  C   UNL     1     104.926  95.987 118.985  1.00  0.00     0.005 A 
ENDROOT
BRANCH   2   7
ATOM      7  C   UNL     1     105.058  99.661 118.450  1.00  0.00     0.091 A 
ATOM      8  N   UNL     1     106.177 100.133 119.045  1.00  0.00    -0.227 NA
ATOM      9  C   UNL     1     106.234 101.465 119.284  1.00  0.00     0.155 A 
ATOM     10  N   UNL     1     107.424 101.915 119.887  1.00  0.00    -0.241 NA
ATOM     11  C   UNL     1     105.199 102.340 118.945  1.00  0.00    -0.003 A 
ATOM     12  C   UNL     1     103.989 100.452 118.071  1.00  0.00     0.031 A 
ATOM     13  C   UNL     1     107.441 103.111 120.388  1.00  0.00     0.086 C 
ATOM     14  C   UNL     1     105.360 103.809 119.198  1.00  0.00     0.045 C 
ATOM     15  C   UNL     1     104.069 101.817 118.319  1.00  0.00     0.010 A 
ATOM     16  C   UNL     1     106.257 104.041 120.403  1.00  0.00     0.053 C 
ENDBRANCH   2   7
BRANCH   3  17
ATOM     17  C   UNL     1     105.287  96.172 115.290  1.00  0.00     0.091 A 
ATOM     18  N   UNL     1     106.246  95.252 115.027  1.00  0.00    -0.226 NA
ATOM     19  C   UNL     1     104.477  96.739 114.331  1.00  0.00     0.031 A 
ATOM     20  C   UNL     1     106.438  94.853 113.764  1.00  0.00     0.159 A 
ATOM     21  C   UNL     1     104.669  96.331 113.023  1.00  0.00     0.014 A 
ATOM     22  N   UNL     1     107.387  93.942 113.504  1.00  0.00    -0.237 NA
ATOM     23  C   UNL     1     105.655  95.381 112.722  1.00  0.00     0.019 A 
ATOM     24  C   UNL     1     107.583  93.537 112.228  1.00  0.00     0.113 A 
ATOM     25  C   UNL     1     105.878  94.944 111.409  1.00  0.00     0.013 A 
ATOM     26  C   UNL     1     106.861  94.003 111.150  1.00  0.00     0.021 A 
ENDBRANCH   3  17
TORSDOF 2
ENDMDL
MODEL 13
REMARK VINA RESULT:      -7.1      4.353      7.110
REMARK SMILES C1=Nc2nc(-c3cccc(-c4ccc5cccnc5n4)n3)ccc2CC1
REMARK SMILES IDX 21 1 6 2 10 3 7 4 9 5 8 6 5 7 4 8 3 9 2 10 24 11 22 12 1 13
REMARK SMILES IDX 25 14 23 15 26 16 11 17 20 18 12 19 19 20 13 21 18 22 14 23
REMARK SMILES IDX 17 24 15 25 16 26
REMARK H PARENT
ROOT
ATOM      1  N   UNL     1     115.686  95.906 122.207  1.00  0.00    -0.245 NA
ATOM      2  C   UNL     1     114.530  95.451 122.741  1.00  0.00     0.089 A 
ATOM      3  C   UNL     1     116.476  94.985 121.611  1.00  0.00     0.089 A 
ATOM      4  C   UNL     1     114.128  94.125 122.707  1.00  0.00     0.031 A 
ATOM      5  C   UNL     1     116.166  93.637 121.524  1.00  0.00     0.031 A 
ATOM      6  C   UNL     1     114.967  93.207 122.086  1.00  0.00     0.005 A 
ENDROOT
BRANCH   2   7
ATOM      7  C   UNL     1     113.711  96.460 123.370  1.00  0.00     0.091 A 
ATOM      8  N   UNL     1     112.475  96.599 122.838  1.00  0.00    -0.227 NA
ATOM      9  C   UNL     1     111.668  97.536 123.392  1.00  0.00     0.155 A 
ATOM     10  N   UNL     1     110.385  97.634 122.820  1.00  0.00    -0.241 NA
ATOM     11  C   UNL     1     112.064  98.339 124.464  1.00  0.00    -0.003 A 
ATOM     12  C   UNL     1     114.185  97.202 124.436  1.00  0.00     0.031 A 
ATOM     13  C   UNL     1     109.666  98.674 123.108  1.00  0.00     0.086 C 
ATOM     14  C   UNL     1     111.094  99.319 125.052  1.00  0.00     0.045 C 
ATOM     15  C   UNL     1     113.341  98.154 124.993  1.00  0.00     0.010 A 
ATOM     16  C   UNL     1     110.126  99.807 123.985  1.00  0.00     0.053 C 
ENDBRANCH   2   7
BRANCH   3  17
ATOM     17  C   UNL     1     117.701  95.503 121.051  1.00  0.00     0.091 A 
ATOM     18  N   UNL     1     118.788  95.380 121.850  1.00  0.00    -0.226 NA
ATOM     19  C   UNL     1     117.725  96.072 119.797  1.00  0.00     0.031 A 
ATOM     20  C   UNL     1     119.971  95.832 121.417  1.00  0.00     0.159 A 
ATOM     21  C   UNL     1     118.944  96.542 119.341  1.00  0.00     0.014 A 
ATOM     22  N   UNL     1     121.046  95.711 122.208  1.00  0.00    -0.237 NA
ATOM     23  C   UNL     1     120.085  96.428 120.149  1.00  0.00     0.019 A 
ATOM     24  C   UNL     1     122.243  96.168 121.772  1.00  0.00     0.113 A 
ATOM     25  C   UNL     1     121.337  96.893 119.721  1.00  0.00     0.013 A 
ATOM     26  C   UNL     1     122.442  96.763 120.545  1.00  0.00     0.021 A 
ENDBRANCH   3  17
TORSDOF 2
ENDMDL
MODEL 14
REMARK VINA RESULT:      -7.1      4.724      7.444
REMARK SMILES C1=Nc2nc(-c3cccc(-c4ccc5cccnc5n4)n3)ccc2CC1
REMARK SMILES IDX 21 1 6 2 10 3 7 4 9 5 8 6 5 7 4 8 3 9 2 10 24 11 22 12 1 13
REMARK SMILES IDX 25 14 23 15 26 16 11 17 20 18 12 19 19 20 13 21 18 22 14 23
REMARK SMILES IDX 17 24 15 25 16 26
REMARK H PARENT
ROOT
ATOM      1  N   UNL     1     115.034 101.782 119.262  1.00  0.00    -0.245 NA
ATOM      2  C   UNL     1     116.255 102.206 118.862  1.00  0.00     0.089 A 
ATOM      3  C   UNL     1     114.006 102.634 119.056  1.00  0.00     0.089 A 
ATOM      4  C   UNL     1     116.493 103.435 118.268  1.00  0.00     0.031 A 
ATOM      5  C   UNL     1     114.138 103.884 118.472  1.00  0.00     0.031 A 
ATOM      6  C   UNL     1     115.410 104.284 118.073  1.00  0.00     0.005 A 
ENDROOT
BRANCH   2   7
ATOM      7  C   UNL     1     117.332 101.273 119.097  1.00  0.00     0.091 A 
ATOM      8  N   UNL     1     117.084 100.007 118.691  1.00  0.00    -0.227 NA
ATOM      9  C   UNL     1     118.062  99.093 118.893  1.00  0.00     0.155 A 
ATOM     10  N   UNL     1     117.769  97.793 118.437  1.00  0.00    -0.241 NA
ATOM     11  C   UNL     1     119.284  99.409 119.491  1.00  0.00    -0.003 A 
ATOM     12  C   UNL     1     118.514 101.681 119.689  1.00  0.00     0.031 A 
ATOM     13  C   UNL     1     118.531  96.821 118.835  1.00  0.00     0.086 C 
ATOM     14  C   UNL     1     120.335  98.351 119.633  1.00  0.00     0.045 C 
ATOM     15  C   UNL     1     119.507 100.730 119.881  1.00  0.00     0.010 A 
ATOM     16  C   UNL     1     119.688  96.983 119.784  1.00  0.00     0.053 C 
ENDBRANCH   2   7
BRANCH   3  17
ATOM     17  C   UNL     1     112.718 102.152 119.494  1.00  0.00     0.091 A 
ATOM     18  N   UNL     1     111.723 103.070 119.456  1.00  0.00    -0.226 NA
ATOM     19  C   UNL     1     112.551 100.849 119.910  1.00  0.00     0.031 A 
ATOM     20  C   UNL     1     110.492 102.715 119.845  1.00  0.00     0.159 A 
ATOM     21  C   UNL     1     111.282 100.474 120.313  1.00  0.00     0.014 A 
ATOM     22  N   UNL     1     109.508 103.625 119.808  1.00  0.00    -0.237 NA
ATOM     23  C   UNL     1     110.234 101.405 120.286  1.00  0.00     0.019 A 
ATOM     24  C   UNL     1     108.263 103.268 120.200  1.00  0.00     0.113 A 
ATOM     25  C   UNL     1     108.934 101.061 120.686  1.00  0.00     0.013 A 
ATOM     26  C   UNL     1     107.925 102.008 120.644  1.00  0.00     0.021 A 
ENDBRANCH   3  17
TORSDOF 2
ENDMDL
MODEL 15
REMARK VINA RESULT:      -7.1     12.387     14.257
REMARK SMILES C1=Nc2nc(-c3cccc(-c4ccc5cccnc5n4)n3)ccc2CC1
REMARK SMILES IDX 21 1 6 2 10 3 7 4 9 5 8 6 5 7 4 8 3 9 2 10 24 11 22 12 1 13
REMARK SMILES IDX 25 14 23 15 26 16 11 17 20 18 12 19 19 20 13 21 18 22 14 23
REMARK SMILES IDX 17 24 15 25 16 26
REMARK H PARENT
ROOT
ATOM      1  N   UNL     1     105.571  95.966 117.469  1.00  0.00    -0.245 NA
ATOM      2  C   UNL     1     105.623  94.658 117.128  1.00  0.00     0.089 A 
ATOM      3  C   UNL     1     105.180  96.242 118.734  1.00  0.00     0.089 A 
ATOM      4  C   UNL     1     105.305  93.619 117.987  1.00  0.00     0.031 A 
ATOM      5  C   UNL     1     104.840  95.277 119.668  1.00  0.00     0.031 A 
ATOM      6  C   UNL     1     104.906  93.942 119.280  1.00  0.00     0.005 A 
ENDROOT
BRANCH   2   7
ATOM      7  C   UNL     1     106.044  94.398 115.772  1.00  0.00     0.091 A 
ATOM      8  N   UNL     1     105.958  95.460 114.938  1.00  0.00    -0.227 NA
ATOM      9  C   UNL     1     106.338  95.266 113.653  1.00  0.00     0.155 A 
ATOM     10  N   UNL     1     106.252  96.403 112.825  1.00  0.00    -0.241 NA
ATOM     11  C   UNL     1     106.801  94.037 113.176  1.00  0.00    -0.003 A 
ATOM     12  C   UNL     1     106.498  93.148 115.392  1.00  0.00     0.031 A 
ATOM     13  C   UNL     1     106.335  96.232 111.543  1.00  0.00     0.086 C 
ATOM     14  C   UNL     1     107.249  93.918 111.751  1.00  0.00     0.045 C 
ATOM     15  C   UNL     1     106.888  92.972 114.071  1.00  0.00     0.010 A 
ATOM     16  C   UNL     1     106.479  94.892 110.873  1.00  0.00     0.053 C 
ENDBRANCH   2   7
BRANCH   3  17
ATOM     17  C   UNL     1     105.136  97.646 119.065  1.00  0.00     0.091 A 
ATOM     18  N   UNL     1     104.328  98.392 118.274  1.00  0.00    -0.226 NA
ATOM     19  C   UNL     1     105.872  98.152 120.113  1.00  0.00     0.031 A 
ATOM     20  C   UNL     1     104.222  99.706 118.504  1.00  0.00     0.159 A 
ATOM     21  C   UNL     1     105.768  99.510 120.358  1.00  0.00     0.014 A 
ATOM     22  N   UNL     1     103.422 100.443 117.721  1.00  0.00    -0.237 NA
ATOM     23  C   UNL     1     104.939 100.306 119.554  1.00  0.00     0.019 A 
ATOM     24  C   UNL     1     103.314 101.772 117.952  1.00  0.00     0.113 A 
ATOM     25  C   UNL     1     104.808 101.685 119.772  1.00  0.00     0.013 A 
ATOM     26  C   UNL     1     103.980 102.439 118.957  1.00  0.00     0.021 A 
ENDBRANCH   3  17
TORSDOF 2
ENDMDL
