MODEL 1
REMARK VINA RESULT:      -8.5      0.000      0.000
REMARK SMILES C[C@]12CCCN1C[C@@H]1NNC(=O)c3cc(F)cc4[nH]c2c1c34
REMARK SMILES IDX 16 1 12 2 6 3 19 4 9 5 10 6 2 7 3 8 20 9 7 10 5 11 8 12 4 13
REMARK SMILES IDX 21 14 1 15 22 16 18 17 13 18 17 19 11 20 14 21 15 22
REMARK H PARENT 19 23 9 24 10 25
ROOT
ATOM      1  F   UNL     1     107.608  93.932 109.973  1.00  0.00    -0.207 F 
ATOM      2  O   UNL     1     105.249  98.030 111.590  1.00  0.00    -0.268 OA
ATOM      3  N   UNL     1     105.082  95.017 117.723  1.00  0.00    -0.291 NA
ATOM      4  N   UNL     1     106.888  93.450 114.769  1.00  0.00    -0.356 N 
ATOM      5  N   UNL     1     103.776  96.653 114.541  1.00  0.00    -0.225 NA
ATOM      6  N   UNL     1     104.257  97.553 113.588  1.00  0.00    -0.287 N 
ATOM      7  C   UNL     1     105.905  93.935 117.093  1.00  0.00     0.059 C 
ATOM      8  C   UNL     1     107.214  93.933 117.912  1.00  0.00     0.030 C 
ATOM      9  C   UNL     1     106.168  94.221 115.642  1.00  0.00     0.041 A 
ATOM     10  C   UNL     1     104.140  95.713 116.822  1.00  0.00     0.111 C 
ATOM     11  C   UNL     1     105.995  95.915 118.426  1.00  0.00     0.085 C 
ATOM     12  C   UNL     1     104.790  96.314 115.545  1.00  0.00     0.121 C 
ATOM     13  C   UNL     1     106.988  94.942 119.028  1.00  0.00     0.018 C 
ATOM     14  C   UNL     1     105.668  95.289 114.938  1.00  0.00     0.003 A 
ATOM     15  C   UNL     1     105.150  92.609 117.255  1.00  0.00     0.035 C 
ATOM     16  C   UNL     1     106.060  95.164 113.590  1.00  0.00     0.018 A 
ATOM     17  C   UNL     1     106.819  93.995 113.501  1.00  0.00     0.050 A 
ATOM     18  C   UNL     1     105.811  95.936 112.442  1.00  0.00     0.053 A 
ATOM     19  C   UNL     1     107.359  93.549 112.292  1.00  0.00     0.066 A 
ATOM     20  C   UNL     1     105.077  97.228 112.510  1.00  0.00     0.266 C 
ATOM     21  C   UNL     1     106.354  95.497 111.224  1.00  0.00     0.054 A 
ATOM     22  C   UNL     1     107.108  94.322 111.154  1.00  0.00     0.126 A 
ATOM     23  H   UNL     1     107.364  92.590 115.005  1.00  0.00     0.166 HD
ATOM     24  H   UNL     1     102.992  97.118 114.999  1.00  0.00     0.148 HD
ATOM     25  H   UNL     1     103.839  98.478 113.607  1.00  0.00     0.185 HD
ENDROOT
TORSDOF 0
ENDMDL
MODEL 2
REMARK VINA RESULT:      -8.1      2.483      4.143
REMARK SMILES C[C@]12CCCN1C[C@@H]1NNC(=O)c3cc(F)cc4[nH]c2c1c34
REMARK SMILES IDX 16 1 12 2 6 3 19 4 9 5 10 6 2 7 3 8 20 9 7 10 5 11 8 12 4 13
REMARK SMILES IDX 21 14 1 15 22 16 18 17 13 18 17 19 11 20 14 21 15 22
REMARK H PARENT 19 23 9 24 10 25
ROOT
ATOM      1  F   UNL     1     105.602  99.078 111.981  1.00  0.00    -0.207 F 
ATOM      2  O   UNL     1     107.067  94.816 109.823  1.00  0.00    -0.268 OA
ATOM      3  N   UNL     1     104.665  91.653 115.386  1.00  0.00    -0.291 NA
ATOM      4  N   UNL     1     104.258  95.396 114.877  1.00  0.00    -0.356 N 
ATOM      5  N   UNL     1     107.177  92.763 112.747  1.00  0.00    -0.225 NA
ATOM      6  N   UNL     1     107.136  93.185 111.417  1.00  0.00    -0.287 N 
ATOM      7  C   UNL     1     104.181  93.005 115.812  1.00  0.00     0.059 C 
ATOM      8  C   UNL     1     102.650  92.839 115.922  1.00  0.00     0.030 C 
ATOM      9  C   UNL     1     104.546  94.060 114.808  1.00  0.00     0.041 A 
ATOM     10  C   UNL     1     105.896  91.641 114.568  1.00  0.00     0.111 C 
ATOM     11  C   UNL     1     103.541  90.956 114.766  1.00  0.00     0.085 C 
ATOM     12  C   UNL     1     105.837  92.531 113.296  1.00  0.00     0.121 C 
ATOM     13  C   UNL     1     102.389  91.363 115.660  1.00  0.00     0.018 C 
ATOM     14  C   UNL     1     105.293  93.854 113.674  1.00  0.00     0.003 A 
ATOM     15  C   UNL     1     104.801  93.321 117.180  1.00  0.00     0.035 C 
ATOM     16  C   UNL     1     105.500  95.095 113.038  1.00  0.00     0.018 A 
ATOM     17  C   UNL     1     104.848  96.056 113.816  1.00  0.00     0.050 A 
ATOM     18  C   UNL     1     106.203  95.477 111.883  1.00  0.00     0.053 A 
ATOM     19  C   UNL     1     104.862  97.413 113.486  1.00  0.00     0.066 A 
ATOM     20  C   UNL     1     106.841  94.476 110.986  1.00  0.00     0.266 C 
ATOM     21  C   UNL     1     106.218  96.839 111.542  1.00  0.00     0.054 A 
ATOM     22  C   UNL     1     105.563  97.786 112.335  1.00  0.00     0.126 A 
ATOM     23  H   UNL     1     103.727  95.843 115.613  1.00  0.00     0.166 HD
ATOM     24  H   UNL     1     107.698  91.885 112.749  1.00  0.00     0.148 HD
ATOM     25  H   UNL     1     107.507  92.528 110.736  1.00  0.00     0.185 HD
ENDROOT
TORSDOF 0
ENDMDL
MODEL 3
REMARK VINA RESULT:      -7.7     12.668     14.711
REMARK SMILES C[C@]12CCCN1C[C@@H]1NNC(=O)c3cc(F)cc4[nH]c2c1c34
REMARK SMILES IDX 16 1 12 2 6 3 19 4 9 5 10 6 2 7 3 8 20 9 7 10 5 11 8 12 4 13
REMARK SMILES IDX 21 14 1 15 22 16 18 17 13 18 17 19 11 20 14 21 15 22
REMARK H PARENT 19 23 9 24 10 25
ROOT
ATOM      1  F   UNL     1     113.701  92.531 122.482  1.00  0.00    -0.207 F 
ATOM      2  O   UNL     1     114.198  96.754 125.107  1.00  0.00    -0.268 OA
ATOM      3  N   UNL     1     120.066  97.682 121.727  1.00  0.00    -0.291 NA
ATOM      4  N   UNL     1     117.732  94.790 120.933  1.00  0.00    -0.356 N 
ATOM      5  N   UNL     1     117.717  97.216 124.690  1.00  0.00    -0.225 NA
ATOM      6  N   UNL     1     116.367  97.444 124.963  1.00  0.00    -0.287 N 
ATOM      7  C   UNL     1     119.684  96.460 120.949  1.00  0.00     0.059 C 
ATOM      8  C   UNL     1     119.586  96.958 119.491  1.00  0.00     0.030 C 
ATOM      9  C   UNL     1     118.377  95.894 121.424  1.00  0.00     0.041 A 
ATOM     10  C   UNL     1     119.592  97.725 123.127  1.00  0.00     0.111 C 
ATOM     11  C   UNL     1     119.675  98.848 120.939  1.00  0.00     0.085 C 
ATOM     12  C   UNL     1     118.060  97.529 123.298  1.00  0.00     0.121 C 
ATOM     13  C   UNL     1     120.035  98.411 119.535  1.00  0.00     0.018 C 
ATOM     14  C   UNL     1     117.641  96.369 122.482  1.00  0.00     0.003 A 
ATOM     15  C   UNL     1     120.810  95.428 121.105  1.00  0.00     0.035 C 
ATOM     16  C   UNL     1     116.529  95.524 122.674  1.00  0.00     0.018 A 
ATOM     17  C   UNL     1     116.609  94.530 121.695  1.00  0.00     0.050 A 
ATOM     18  C   UNL     1     115.482  95.514 123.610  1.00  0.00     0.053 A 
ATOM     19  C   UNL     1     115.668  93.502 121.602  1.00  0.00     0.066 A 
ATOM     20  C   UNL     1     115.317  96.598 124.615  1.00  0.00     0.266 C 
ATOM     21  C   UNL     1     114.529  94.486 123.520  1.00  0.00     0.054 A 
ATOM     22  C   UNL     1     114.627  93.498 122.536  1.00  0.00     0.126 A 
ATOM     23  H   UNL     1     118.049  94.224 120.158  1.00  0.00     0.166 HD
ATOM     24  H   UNL     1     118.240  97.833 125.312  1.00  0.00     0.148 HD
ATOM     25  H   UNL     1     116.172  98.208 125.604  1.00  0.00     0.185 HD
ENDROOT
TORSDOF 0
ENDMDL
MODEL 4
REMARK VINA RESULT:      -7.4      2.464      3.882
REMARK SMILES C[C@]12CCCN1C[C@@H]1NNC(=O)c3cc(F)cc4[nH]c2c1c34
REMARK SMILES IDX 16 1 12 2 6 3 19 4 9 5 10 6 2 7 3 8 20 9 7 10 5 11 8 12 4 13
REMARK SMILES IDX 21 14 1 15 22 16 18 17 13 18 17 19 11 20 14 21 15 22
REMARK H PARENT 19 23 9 24 10 25
ROOT
ATOM      1  F   UNL     1     107.147  94.356 110.952  1.00  0.00    -0.207 F 
ATOM      2  O   UNL     1     104.991  90.368 113.056  1.00  0.00    -0.268 OA
ATOM      3  N   UNL     1     104.311  94.209 118.669  1.00  0.00    -0.291 NA
ATOM      4  N   UNL     1     105.687  95.629 115.425  1.00  0.00    -0.356 N 
ATOM      5  N   UNL     1     105.416  91.293 116.483  1.00  0.00    -0.225 NA
ATOM      6  N   UNL     1     104.968  90.668 115.317  1.00  0.00    -0.287 N 
ATOM      7  C   UNL     1     104.858  95.328 117.837  1.00  0.00     0.059 C 
ATOM      8  C   UNL     1     103.730  96.382 117.837  1.00  0.00     0.030 C 
ATOM      9  C   UNL     1     105.179  94.869 116.444  1.00  0.00     0.041 A 
ATOM     10  C   UNL     1     104.796  92.856 118.323  1.00  0.00     0.111 C 
ATOM     11  C   UNL     1     102.855  94.329 118.670  1.00  0.00     0.085 C 
ATOM     12  C   UNL     1     104.600  92.461 116.833  1.00  0.00     0.121 C 
ATOM     13  C   UNL     1     102.665  95.828 118.771  1.00  0.00     0.018 C 
ATOM     14  C   UNL     1     105.067  93.580 115.986  1.00  0.00     0.003 A 
ATOM     15  C   UNL     1     106.116  95.866 118.534  1.00  0.00     0.035 C 
ATOM     16  C   UNL     1     105.546  93.529 114.660  1.00  0.00     0.018 A 
ATOM     17  C   UNL     1     105.940  94.828 114.328  1.00  0.00     0.050 A 
ATOM     18  C   UNL     1     105.692  92.485 113.732  1.00  0.00     0.053 A 
ATOM     19  C   UNL     1     106.486  95.142 113.081  1.00  0.00     0.066 A 
ATOM     20  C   UNL     1     105.210  91.106 114.018  1.00  0.00     0.266 C 
ATOM     21  C   UNL     1     106.236  92.794 112.475  1.00  0.00     0.054 A 
ATOM     22  C   UNL     1     106.629  94.098 112.161  1.00  0.00     0.126 A 
ATOM     23  H   UNL     1     105.887  96.619 115.476  1.00  0.00     0.166 HD
ATOM     24  H   UNL     1     105.342  90.596 117.224  1.00  0.00     0.148 HD
ATOM     25  H   UNL     1     104.574  89.740 115.442  1.00  0.00     0.185 HD
ENDROOT
TORSDOF 0
ENDMDL
MODEL 5
REMARK VINA RESULT:      -7.4      2.026      2.769
REMARK SMILES C[C@]12CCCN1C[C@@H]1NNC(=O)c3cc(F)cc4[nH]c2c1c34
REMARK SMILES IDX 16 1 12 2 6 3 19 4 9 5 10 6 2 7 3 8 20 9 7 10 5 11 8 12 4 13
REMARK SMILES IDX 21 14 1 15 22 16 18 17 13 18 17 19 11 20 14 21 15 22
REMARK H PARENT 19 23 9 24 10 25
ROOT
ATOM      1  F   UNL     1     109.235  92.622 113.252  1.00  0.00    -0.207 F 
ATOM      2  O   UNL     1     106.504  95.777 110.500  1.00  0.00    -0.268 OA
ATOM      3  N   UNL     1     102.671  96.683 116.086  1.00  0.00    -0.291 NA
ATOM      4  N   UNL     1     105.818  94.554 116.140  1.00  0.00    -0.356 N 
ATOM      5  N   UNL     1     103.536  95.769 112.491  1.00  0.00    -0.225 NA
ATOM      6  N   UNL     1     104.514  96.121 111.559  1.00  0.00    -0.287 N 
ATOM      7  C   UNL     1     103.673  95.813 116.782  1.00  0.00     0.059 C 
ATOM      8  C   UNL     1     104.249  96.719 117.892  1.00  0.00     0.030 C 
ATOM      9  C   UNL     1     104.747  95.353 115.840  1.00  0.00     0.041 A 
ATOM     10  C   UNL     1     102.461  96.397 114.651  1.00  0.00     0.111 C 
ATOM     11  C   UNL     1     103.023  98.074 116.363  1.00  0.00     0.085 C 
ATOM     12  C   UNL     1     103.756  96.409 113.793  1.00  0.00     0.121 C 
ATOM     13  C   UNL     1     103.442  98.006 117.817  1.00  0.00     0.018 C 
ATOM     14  C   UNL     1     104.790  95.615 114.492  1.00  0.00     0.003 A 
ATOM     15  C   UNL     1     102.926  94.614 117.381  1.00  0.00     0.035 C 
ATOM     16  C   UNL     1     105.895  94.940 113.936  1.00  0.00     0.018 A 
ATOM     17  C   UNL     1     106.525  94.270 114.988  1.00  0.00     0.050 A 
ATOM     18  C   UNL     1     106.393  94.830 112.626  1.00  0.00     0.053 A 
ATOM     19  C   UNL     1     107.659  93.477 114.791  1.00  0.00     0.066 A 
ATOM     20  C   UNL     1     105.800  95.592 111.494  1.00  0.00     0.266 C 
ATOM     21  C   UNL     1     107.534  94.038 112.421  1.00  0.00     0.054 A 
ATOM     22  C   UNL     1     108.149  93.372 113.485  1.00  0.00     0.126 A 
ATOM     23  H   UNL     1     106.038  94.192 117.058  1.00  0.00     0.166 HD
ATOM     24  H   UNL     1     102.647  96.089 112.105  1.00  0.00     0.148 HD
ATOM     25  H   UNL     1     104.192  96.690 110.781  1.00  0.00     0.185 HD
ENDROOT
TORSDOF 0
ENDMDL
MODEL 6
REMARK VINA RESULT:      -7.3      3.268      6.094
REMARK SMILES C[C@]12CCCN1C[C@@H]1NNC(=O)c3cc(F)cc4[nH]c2c1c34
REMARK SMILES IDX 16 1 12 2 6 3 19 4 9 5 10 6 2 7 3 8 20 9 7 10 5 11 8 12 4 13
REMARK SMILES IDX 21 14 1 15 22 16 18 17 13 18 17 19 11 20 14 21 15 22
REMARK H PARENT 19 23 9 24 10 25
ROOT
ATOM      1  F   UNL     1     105.242  98.052 119.510  1.00  0.00    -0.207 F 
ATOM      2  O   UNL     1     107.290  93.542 118.843  1.00  0.00    -0.268 OA
ATOM      3  N   UNL     1     105.313  94.063 112.320  1.00  0.00    -0.291 NA
ATOM      4  N   UNL     1     104.855  96.918 114.786  1.00  0.00    -0.356 N 
ATOM      5  N   UNL     1     105.577  92.632 115.840  1.00  0.00    -0.225 NA
ATOM      6  N   UNL     1     106.499  92.672 116.888  1.00  0.00    -0.287 N 
ATOM      7  C   UNL     1     104.873  95.450 112.678  1.00  0.00     0.059 C 
ATOM      8  C   UNL     1     105.714  96.360 111.758  1.00  0.00     0.030 C 
ATOM      9  C   UNL     1     105.129  95.749 114.127  1.00  0.00     0.041 A 
ATOM     10  C   UNL     1     105.239  93.065 113.408  1.00  0.00     0.111 C 
ATOM     11  C   UNL     1     106.635  94.163 111.705  1.00  0.00     0.085 C 
ATOM     12  C   UNL     1     105.991  93.467 114.707  1.00  0.00     0.121 C 
ATOM     13  C   UNL     1     106.490  95.411 110.858  1.00  0.00     0.018 C 
ATOM     14  C   UNL     1     105.630  94.861 115.047  1.00  0.00     0.003 A 
ATOM     15  C   UNL     1     103.377  95.570 112.356  1.00  0.00     0.035 C 
ATOM     16  C   UNL     1     105.641  95.480 116.313  1.00  0.00     0.018 A 
ATOM     17  C   UNL     1     105.141  96.772 116.130  1.00  0.00     0.050 A 
ATOM     18  C   UNL     1     106.014  95.040 117.594  1.00  0.00     0.053 A 
ATOM     19  C   UNL     1     104.993  97.669 117.191  1.00  0.00     0.066 A 
ATOM     20  C   UNL     1     106.625  93.702 117.817  1.00  0.00     0.266 C 
ATOM     21  C   UNL     1     105.872  95.937 118.665  1.00  0.00     0.054 A 
ATOM     22  C   UNL     1     105.366  97.224 118.464  1.00  0.00     0.126 A 
ATOM     23  H   UNL     1     104.466  97.749 114.364  1.00  0.00     0.166 HD
ATOM     24  H   UNL     1     105.531  91.658 115.541  1.00  0.00     0.148 HD
ATOM     25  H   UNL     1     106.998  91.805 117.066  1.00  0.00     0.185 HD
ENDROOT
TORSDOF 0
ENDMDL
MODEL 7
REMARK VINA RESULT:      -7.3     13.926     15.884
REMARK SMILES C[C@]12CCCN1C[C@@H]1NNC(=O)c3cc(F)cc4[nH]c2c1c34
REMARK SMILES IDX 16 1 12 2 6 3 19 4 9 5 10 6 2 7 3 8 20 9 7 10 5 11 8 12 4 13
REMARK SMILES IDX 21 14 1 15 22 16 18 17 13 18 17 19 11 20 14 21 15 22
REMARK H PARENT 19 23 9 24 10 25
ROOT
ATOM      1  F   UNL     1     119.178 102.398 125.107  1.00  0.00    -0.207 F 
ATOM      2  O   UNL     1     118.109 102.826 120.244  1.00  0.00    -0.268 OA
ATOM      3  N   UNL     1     119.102  96.075 119.851  1.00  0.00    -0.291 NA
ATOM      4  N   UNL     1     119.220  97.927 123.167  1.00  0.00    -0.356 N 
ATOM      5  N   UNL     1     119.596  99.779 119.114  1.00  0.00    -0.225 NA
ATOM      6  N   UNL     1     118.825 100.941 119.178  1.00  0.00    -0.287 N 
ATOM      7  C   UNL     1     119.267  96.122 121.340  1.00  0.00     0.059 C 
ATOM      8  C   UNL     1     118.139  95.213 121.872  1.00  0.00     0.030 C 
ATOM      9  C   UNL     1     119.132  97.524 121.861  1.00  0.00     0.041 A 
ATOM     10  C   UNL     1     119.529  97.287 119.120  1.00  0.00     0.111 C 
ATOM     11  C   UNL     1     117.726  95.673 119.571  1.00  0.00     0.085 C 
ATOM     12  C   UNL     1     118.872  98.605 119.614  1.00  0.00     0.121 C 
ATOM     13  C   UNL     1     117.486  94.620 120.632  1.00  0.00     0.018 C 
ATOM     14  C   UNL     1     118.956  98.647 121.090  1.00  0.00     0.003 A 
ATOM     15  C   UNL     1     120.648  95.547 121.683  1.00  0.00     0.035 C 
ATOM     16  C   UNL     1     118.965  99.778 121.932  1.00  0.00     0.018 A 
ATOM     17  C   UNL     1     119.142  99.305 123.235  1.00  0.00     0.050 A 
ATOM     18  C   UNL     1     118.860 101.157 121.687  1.00  0.00     0.053 A 
ATOM     19  C   UNL     1     119.218 100.165 124.333  1.00  0.00     0.066 A 
ATOM     20  C   UNL     1     118.590 101.695 120.326  1.00  0.00     0.266 C 
ATOM     21  C   UNL     1     118.930 102.028 122.786  1.00  0.00     0.054 A 
ATOM     22  C   UNL     1     119.111 101.537 124.082  1.00  0.00     0.126 A 
ATOM     23  H   UNL     1     119.362  97.316 123.960  1.00  0.00     0.166 HD
ATOM     24  H   UNL     1     119.819  99.641 118.128  1.00  0.00     0.148 HD
ATOM     25  H   UNL     1     118.555 101.338 118.283  1.00  0.00     0.185 HD
ENDROOT
TORSDOF 0
ENDMDL
MODEL 8
REMARK VINA RESULT:      -7.2      1.847      3.509
REMARK SMILES C[C@]12CCCN1C[C@@H]1NNC(=O)c3cc(F)cc4[nH]c2c1c34
REMARK SMILES IDX 16 1 12 2 6 3 19 4 9 5 10 6 2 7 3 8 20 9 7 10 5 11 8 12 4 13
REMARK SMILES IDX 21 14 1 15 22 16 18 17 13 18 17 19 11 20 14 21 15 22
REMARK H PARENT 19 23 9 24 10 25
ROOT
ATOM      1  F   UNL     1     105.365  97.740 110.858  1.00  0.00    -0.207 F 
ATOM      2  O   UNL     1     107.229  93.167 111.627  1.00  0.00    -0.268 OA
ATOM      3  N   UNL     1     105.698  94.099 118.223  1.00  0.00    -0.291 NA
ATOM      4  N   UNL     1     104.751  96.646 115.567  1.00  0.00    -0.356 N 
ATOM      5  N   UNL     1     107.833  93.435 115.140  1.00  0.00    -0.225 NA
ATOM      6  N   UNL     1     107.636  92.919 113.857  1.00  0.00    -0.287 N 
ATOM      7  C   UNL     1     105.068  95.385 117.783  1.00  0.00     0.059 C 
ATOM      8  C   UNL     1     103.586  95.237 118.189  1.00  0.00     0.030 C 
ATOM      9  C   UNL     1     105.212  95.587 116.301  1.00  0.00     0.041 A 
ATOM     10  C   UNL     1     106.855  93.644 117.423  1.00  0.00     0.111 C 
ATOM     11  C   UNL     1     104.635  93.103 118.338  1.00  0.00     0.085 C 
ATOM     12  C   UNL     1     106.581  93.525 115.899  1.00  0.00     0.121 C 
ATOM     13  C   UNL     1     103.509  93.916 118.939  1.00  0.00     0.018 C 
ATOM     14  C   UNL     1     105.893  94.755 115.448  1.00  0.00     0.003 A 
ATOM     15  C   UNL     1     105.740  96.530 118.553  1.00  0.00     0.035 C 
ATOM     16  C   UNL     1     105.882  95.324 114.158  1.00  0.00     0.018 A 
ATOM     17  C   UNL     1     105.166  96.520 114.256  1.00  0.00     0.050 A 
ATOM     18  C   UNL     1     106.439  94.930 112.930  1.00  0.00     0.053 A 
ATOM     19  C   UNL     1     104.972  97.361 113.157  1.00  0.00     0.066 A 
ATOM     20  C   UNL     1     107.138  93.627 112.767  1.00  0.00     0.266 C 
ATOM     21  C   UNL     1     106.245  95.769 111.820  1.00  0.00     0.054 A 
ATOM     22  C   UNL     1     105.529  96.963 111.937  1.00  0.00     0.126 A 
ATOM     23  H   UNL     1     104.221  97.426 115.934  1.00  0.00     0.166 HD
ATOM     24  H   UNL     1     108.466  92.789 115.612  1.00  0.00     0.148 HD
ATOM     25  H   UNL     1     108.041  92.003 113.687  1.00  0.00     0.185 HD
ENDROOT
TORSDOF 0
ENDMDL
MODEL 9
REMARK VINA RESULT:      -7.0      3.183      5.874
REMARK SMILES C[C@]12CCCN1C[C@@H]1NNC(=O)c3cc(F)cc4[nH]c2c1c34
REMARK SMILES IDX 16 1 12 2 6 3 19 4 9 5 10 6 2 7 3 8 20 9 7 10 5 11 8 12 4 13
REMARK SMILES IDX 21 14 1 15 22 16 18 17 13 18 17 19 11 20 14 21 15 22
REMARK H PARENT 19 23 9 24 10 25
ROOT
ATOM      1  F   UNL     1     102.934  98.655 118.050  1.00  0.00    -0.207 F 
ATOM      2  O   UNL     1     106.850  95.773 119.206  1.00  0.00    -0.268 OA
ATOM      3  N   UNL     1     106.140  93.024 112.988  1.00  0.00    -0.291 NA
ATOM      4  N   UNL     1     104.003  95.947 114.142  1.00  0.00    -0.356 N 
ATOM      5  N   UNL     1     106.328  93.192 116.789  1.00  0.00    -0.225 NA
ATOM      6  N   UNL     1     106.917  94.025 117.742  1.00  0.00    -0.287 N 
ATOM      7  C   UNL     1     105.072  94.053 112.774  1.00  0.00     0.059 C 
ATOM      8  C   UNL     1     105.583  94.882 111.576  1.00  0.00     0.030 C 
ATOM      9  C   UNL     1     104.886  94.911 113.993  1.00  0.00     0.041 A 
ATOM     10  C   UNL     1     106.307  92.552 114.379  1.00  0.00     0.111 C 
ATOM     11  C   UNL     1     107.372  93.533 112.388  1.00  0.00     0.085 C 
ATOM     12  C   UNL     1     106.540  93.681 115.421  1.00  0.00     0.121 C 
ATOM     13  C   UNL     1     106.856  94.183 111.122  1.00  0.00     0.018 C 
ATOM     14  C   UNL     1     105.542  94.748 115.188  1.00  0.00     0.003 A 
ATOM     15  C   UNL     1     103.770  93.320 112.423  1.00  0.00     0.035 C 
ATOM     16  C   UNL     1     105.034  95.683 116.113  1.00  0.00     0.018 A 
ATOM     17  C   UNL     1     104.060  96.423 115.438  1.00  0.00     0.050 A 
ATOM     18  C   UNL     1     105.309  95.943 117.466  1.00  0.00     0.053 A 
ATOM     19  C   UNL     1     103.330  97.437 116.064  1.00  0.00     0.066 A 
ATOM     20  C   UNL     1     106.394  95.233 118.196  1.00  0.00     0.266 C 
ATOM     21  C   UNL     1     104.583  96.963 118.101  1.00  0.00     0.054 A 
ATOM     22  C   UNL     1     103.609  97.690 117.411  1.00  0.00     0.126 A 
ATOM     23  H   UNL     1     103.375  96.287 113.427  1.00  0.00     0.166 HD
ATOM     24  H   UNL     1     106.776  92.281 116.892  1.00  0.00     0.148 HD
ATOM     25  H   UNL     1     107.704  93.626 118.247  1.00  0.00     0.185 HD
ENDROOT
TORSDOF 0
ENDMDL
MODEL 10
REMARK VINA RESULT:      -6.9      2.974      5.004
REMARK SMILES C[C@]12CCCN1C[C@@H]1NNC(=O)c3cc(F)cc4[nH]c2c1c34
REMARK SMILES IDX 16 1 12 2 6 3 19 4 9 5 10 6 2 7 3 8 20 9 7 10 5 11 8 12 4 13
REMARK SMILES IDX 21 14 1 15 22 16 18 17 13 18 17 19 11 20 14 21 15 22
REMARK H PARENT 19 23 9 24 10 25
ROOT
ATOM      1  F   UNL     1     108.978  93.109 112.790  1.00  0.00    -0.207 F 
ATOM      2  O   UNL     1     106.448  93.245 117.098  1.00  0.00    -0.268 OA
ATOM      3  N   UNL     1     101.504  96.435 113.619  1.00  0.00    -0.291 NA
ATOM      4  N   UNL     1     104.616  95.092 111.901  1.00  0.00    -0.356 N 
ATOM      5  N   UNL     1     104.170  95.876 116.281  1.00  0.00    -0.225 NA
ATOM      6  N   UNL     1     104.773  94.781 116.904  1.00  0.00    -0.287 N 
ATOM      7  C   UNL     1     102.348  96.188 112.406  1.00  0.00     0.059 C 
ATOM      8  C   UNL     1     101.454  95.318 111.497  1.00  0.00     0.030 C 
ATOM      9  C   UNL     1     103.623  95.477 112.761  1.00  0.00     0.041 A 
ATOM     10  C   UNL     1     102.242  96.619 114.887  1.00  0.00     0.111 C 
ATOM     11  C   UNL     1     100.491  95.384 113.676  1.00  0.00     0.085 C 
ATOM     12  C   UNL     1     103.224  95.468 115.237  1.00  0.00     0.121 C 
ATOM     13  C   UNL     1     100.116  95.233 112.216  1.00  0.00     0.018 C 
ATOM     14  C   UNL     1     104.025  95.152 114.033  1.00  0.00     0.003 A 
ATOM     15  C   UNL     1     102.648  97.544 111.752  1.00  0.00     0.035 C 
ATOM     16  C   UNL     1     105.311  94.578 113.967  1.00  0.00     0.018 A 
ATOM     17  C   UNL     1     105.670  94.558 112.617  1.00  0.00     0.050 A 
ATOM     18  C   UNL     1     106.199  94.099 114.944  1.00  0.00     0.053 A 
ATOM     19  C   UNL     1     106.905  94.067 112.184  1.00  0.00     0.066 A 
ATOM     20  C   UNL     1     105.822  94.029 116.382  1.00  0.00     0.266 C 
ATOM     21  C   UNL     1     107.440  93.599 114.517  1.00  0.00     0.054 A 
ATOM     22  C   UNL     1     107.784  93.590 113.162  1.00  0.00     0.126 A 
ATOM     23  H   UNL     1     104.602  95.215 110.898  1.00  0.00     0.166 HD
ATOM     24  H   UNL     1     103.667  96.377 117.013  1.00  0.00     0.148 HD
ATOM     25  H   UNL     1     104.520  94.636 117.877  1.00  0.00     0.185 HD
ENDROOT
TORSDOF 0
ENDMDL
MODEL 11
REMARK VINA RESULT:      -6.8     13.373     14.962
REMARK SMILES C[C@]12CCCN1C[C@@H]1NNC(=O)c3cc(F)cc4[nH]c2c1c34
REMARK SMILES IDX 16 1 12 2 6 3 19 4 9 5 10 6 2 7 3 8 20 9 7 10 5 11 8 12 4 13
REMARK SMILES IDX 21 14 1 15 22 16 18 17 13 18 17 19 11 20 14 21 15 22
REMARK H PARENT 19 23 9 24 10 25
ROOT
ATOM      1  F   UNL     1     116.908  93.175 120.229  1.00  0.00    -0.207 F 
ATOM      2  O   UNL     1     115.985  95.661 124.465  1.00  0.00    -0.268 OA
ATOM      3  N   UNL     1     119.004 101.025 121.492  1.00  0.00    -0.291 NA
ATOM      4  N   UNL     1     118.399  97.775 119.619  1.00  0.00    -0.356 N 
ATOM      5  N   UNL     1     118.380  98.284 124.062  1.00  0.00    -0.225 NA
ATOM      6  N   UNL     1     117.289  97.532 124.504  1.00  0.00    -0.287 N 
ATOM      7  C   UNL     1     119.078 100.166 120.267  1.00  0.00     0.059 C 
ATOM      8  C   UNL     1     118.257 100.942 119.214  1.00  0.00     0.030 C 
ATOM      9  C   UNL     1     118.498  98.804 120.517  1.00  0.00     0.041 A 
ATOM     10  C   UNL     1     119.074 100.308 122.783  1.00  0.00     0.111 C 
ATOM     11  C   UNL     1     117.830 101.884 121.361  1.00  0.00     0.085 C 
ATOM     12  C   UNL     1     118.025  99.175 122.952  1.00  0.00     0.121 C 
ATOM     13  C   UNL     1     117.873 102.249 119.892  1.00  0.00     0.018 C 
ATOM     14  C   UNL     1     118.025  98.350 121.723  1.00  0.00     0.003 A 
ATOM     15  C   UNL     1     120.551 100.060 119.849  1.00  0.00     0.035 C 
ATOM     16  C   UNL     1     117.650  96.998 121.582  1.00  0.00     0.018 A 
ATOM     17  C   UNL     1     117.902  96.651 120.252  1.00  0.00     0.050 A 
ATOM     18  C   UNL     1     117.141  96.044 122.478  1.00  0.00     0.053 A 
ATOM     19  C   UNL     1     117.662  95.365 119.761  1.00  0.00     0.066 A 
ATOM     20  C   UNL     1     116.784  96.395 123.879  1.00  0.00     0.266 C 
ATOM     21  C   UNL     1     116.893  94.750 121.991  1.00  0.00     0.054 A 
ATOM     22  C   UNL     1     117.155  94.420 120.658  1.00  0.00     0.126 A 
ATOM     23  H   UNL     1     118.683  97.815 118.650  1.00  0.00     0.166 HD
ATOM     24  H   UNL     1     118.680  98.844 124.860  1.00  0.00     0.148 HD
ATOM     25  H   UNL     1     116.953  97.754 125.436  1.00  0.00     0.185 HD
ENDROOT
TORSDOF 0
ENDMDL
MODEL 12
REMARK VINA RESULT:      -6.8     14.685     16.492
REMARK SMILES C[C@]12CCCN1C[C@@H]1NNC(=O)c3cc(F)cc4[nH]c2c1c34
REMARK SMILES IDX 16 1 12 2 6 3 19 4 9 5 10 6 2 7 3 8 20 9 7 10 5 11 8 12 4 13
REMARK SMILES IDX 21 14 1 15 22 16 18 17 13 18 17 19 11 20 14 21 15 22
REMARK H PARENT 19 23 9 24 10 25
ROOT
ATOM      1  F   UNL     1     117.512 103.718 120.381  1.00  0.00    -0.207 F 
ATOM      2  O   UNL     1     119.446 102.209 124.735  1.00  0.00    -0.268 OA
ATOM      3  N   UNL     1     120.341  96.121 121.759  1.00  0.00    -0.291 NA
ATOM      4  N   UNL     1     119.043  99.124 119.827  1.00  0.00    -0.356 N 
ATOM      5  N   UNL     1     119.075  98.684 124.277  1.00  0.00    -0.225 NA
ATOM      6  N   UNL     1     119.487  99.929 124.756  1.00  0.00    -0.287 N 
ATOM      7  C   UNL     1     119.856  96.784 120.506  1.00  0.00     0.059 C 
ATOM      8  C   UNL     1     121.041  96.647 119.526  1.00  0.00     0.030 C 
ATOM      9  C   UNL     1     119.510  98.225 120.748  1.00  0.00     0.041 A 
ATOM     10  C   UNL     1     119.783  96.649 123.022  1.00  0.00     0.111 C 
ATOM     11  C   UNL     1     121.802  96.116 121.720  1.00  0.00     0.085 C 
ATOM     12  C   UNL     1     119.954  98.181 123.216  1.00  0.00     0.121 C 
ATOM     13  C   UNL     1     122.074  95.808 120.263  1.00  0.00     0.018 C 
ATOM     14  C   UNL     1     119.549  98.860 121.965  1.00  0.00     0.003 A 
ATOM     15  C   UNL     1     118.631  96.009 120.003  1.00  0.00     0.035 C 
ATOM     16  C   UNL     1     119.068 100.175 121.804  1.00  0.00     0.018 A 
ATOM     17  C   UNL     1     118.746 100.320 120.452  1.00  0.00     0.050 A 
ATOM     18  C   UNL     1     118.863 101.239 122.699  1.00  0.00     0.053 A 
ATOM     19  C   UNL     1     118.217 101.506 119.937  1.00  0.00     0.066 A 
ATOM     20  C   UNL     1     119.268 101.152 124.128  1.00  0.00     0.266 C 
ATOM     21  C   UNL     1     118.336 102.436 122.188  1.00  0.00     0.054 A 
ATOM     22  C   UNL     1     118.016 102.561 120.833  1.00  0.00     0.126 A 
ATOM     23  H   UNL     1     118.899  98.933 118.844  1.00  0.00     0.166 HD
ATOM     24  H   UNL     1     119.111  98.047 125.073  1.00  0.00     0.148 HD
ATOM     25  H   UNL     1     119.830  99.938 125.713  1.00  0.00     0.185 HD
ENDROOT
TORSDOF 0
ENDMDL
MODEL 13
REMARK VINA RESULT:      -6.8      3.094      5.159
REMARK SMILES C[C@]12CCCN1C[C@@H]1NNC(=O)c3cc(F)cc4[nH]c2c1c34
REMARK SMILES IDX 16 1 12 2 6 3 19 4 9 5 10 6 2 7 3 8 20 9 7 10 5 11 8 12 4 13
REMARK SMILES IDX 21 14 1 15 22 16 18 17 13 18 17 19 11 20 14 21 15 22
REMARK H PARENT 19 23 9 24 10 25
ROOT
ATOM      1  F   UNL     1     106.116  96.976 120.435  1.00  0.00    -0.207 F 
ATOM      2  O   UNL     1     102.933  98.466 116.881  1.00  0.00    -0.268 OA
ATOM      3  N   UNL     1     105.587  93.504 113.000  1.00  0.00    -0.291 NA
ATOM      4  N   UNL     1     106.608  93.970 116.630  1.00  0.00    -0.356 N 
ATOM      5  N   UNL     1     104.590  97.024 114.061  1.00  0.00    -0.225 NA
ATOM      6  N   UNL     1     103.623  97.602 114.885  1.00  0.00    -0.287 N 
ATOM      7  C   UNL     1     106.370  93.120 114.218  1.00  0.00     0.059 C 
ATOM      8  C   UNL     1     105.917  91.675 114.516  1.00  0.00     0.030 C 
ATOM      9  C   UNL     1     106.074  94.035 115.371  1.00  0.00     0.041 A 
ATOM     10  C   UNL     1     105.268  94.941 112.869  1.00  0.00     0.111 C 
ATOM     11  C   UNL     1     104.414  92.634 112.935  1.00  0.00     0.085 C 
ATOM     12  C   UNL     1     104.542  95.558 114.097  1.00  0.00     0.121 C 
ATOM     13  C   UNL     1     104.990  91.302 113.369  1.00  0.00     0.018 C 
ATOM     14  C   UNL     1     105.254  95.136 115.323  1.00  0.00     0.003 A 
ATOM     15  C   UNL     1     107.861  93.168 113.857  1.00  0.00     0.035 C 
ATOM     16  C   UNL     1     105.301  95.788 116.572  1.00  0.00     0.018 A 
ATOM     17  C   UNL     1     106.166  95.044 117.379  1.00  0.00     0.050 A 
ATOM     18  C   UNL     1     104.698  96.956 117.068  1.00  0.00     0.053 A 
ATOM     19  C   UNL     1     106.463  95.419 118.692  1.00  0.00     0.066 A 
ATOM     20  C   UNL     1     103.710  97.730 116.269  1.00  0.00     0.266 C 
ATOM     21  C   UNL     1     104.988  97.336 118.389  1.00  0.00     0.054 A 
ATOM     22  C   UNL     1     105.859  96.582 119.180  1.00  0.00     0.126 A 
ATOM     23  H   UNL     1     107.258  93.267 116.954  1.00  0.00     0.166 HD
ATOM     24  H   UNL     1     104.383  97.343 113.114  1.00  0.00     0.148 HD
ATOM     25  H   UNL     1     102.882  98.105 114.406  1.00  0.00     0.185 HD
ENDROOT
TORSDOF 0
ENDMDL
MODEL 14
REMARK VINA RESULT:      -6.7     14.644     15.958
REMARK SMILES C[C@]12CCCN1C[C@@H]1NNC(=O)c3cc(F)cc4[nH]c2c1c34
REMARK SMILES IDX 16 1 12 2 6 3 19 4 9 5 10 6 2 7 3 8 20 9 7 10 5 11 8 12 4 13
REMARK SMILES IDX 21 14 1 15 22 16 18 17 13 18 17 19 11 20 14 21 15 22
REMARK H PARENT 19 23 9 24 10 25
ROOT
ATOM      1  F   UNL     1     121.846  96.558 118.096  1.00  0.00    -0.207 F 
ATOM      2  O   UNL     1     120.373  94.401 122.357  1.00  0.00    -0.268 OA
ATOM      3  N   UNL     1     117.360 100.353 123.848  1.00  0.00    -0.291 NA
ATOM      4  N   UNL     1     119.059  99.750 120.503  1.00  0.00    -0.356 N 
ATOM      5  N   UNL     1     119.692  97.367 124.233  1.00  0.00    -0.225 NA
ATOM      6  N   UNL     1     119.722  96.037 123.807  1.00  0.00    -0.287 N 
ATOM      7  C   UNL     1     117.777 100.784 122.475  1.00  0.00     0.059 C 
ATOM      8  C   UNL     1     116.447 101.098 121.758  1.00  0.00     0.030 C 
ATOM      9  C   UNL     1     118.537  99.698 121.768  1.00  0.00     0.041 A 
ATOM     10  C   UNL     1     118.253  99.383 124.515  1.00  0.00     0.111 C 
ATOM     11  C   UNL     1     115.968  99.913 123.769  1.00  0.00     0.085 C 
ATOM     12  C   UNL     1     118.538  98.094 123.695  1.00  0.00     0.121 C 
ATOM     13  C   UNL     1     115.372 100.932 122.822  1.00  0.00     0.018 C 
ATOM     14  C   UNL     1     118.885  98.486 122.311  1.00  0.00     0.003 A 
ATOM     15  C   UNL     1     118.640 102.045 122.616  1.00  0.00     0.035 C 
ATOM     16  C   UNL     1     119.667  97.779 121.375  1.00  0.00     0.018 A 
ATOM     17  C   UNL     1     119.773  98.596 120.246  1.00  0.00     0.050 A 
ATOM     18  C   UNL     1     120.305  96.528 121.408  1.00  0.00     0.053 A 
ATOM     19  C   UNL     1     120.503  98.212 119.118  1.00  0.00     0.066 A 
ATOM     20  C   UNL     1     120.149  95.597 122.557  1.00  0.00     0.266 C 
ATOM     21  C   UNL     1     121.037  96.134 120.276  1.00  0.00     0.054 A 
ATOM     22  C   UNL     1     121.136  96.966 119.157  1.00  0.00     0.126 A 
ATOM     23  H   UNL     1     118.972 100.530 119.866  1.00  0.00     0.166 HD
ATOM     24  H   UNL     1     119.626  97.337 125.251  1.00  0.00     0.148 HD
ATOM     25  H   UNL     1     119.569  95.341 124.532  1.00  0.00     0.185 HD
ENDROOT
TORSDOF 0
ENDMDL
MODEL 15
REMARK VINA RESULT:      -6.7      4.402      6.892
REMARK SMILES C[C@]12CCCN1C[C@@H]1NNC(=O)c3cc(F)cc4[nH]c2c1c34
REMARK SMILES IDX 16 1 12 2 6 3 19 4 9 5 10 6 2 7 3 8 20 9 7 10 5 11 8 12 4 13
REMARK SMILES IDX 21 14 1 15 22 16 18 17 13 18 17 19 11 20 14 21 15 22
REMARK H PARENT 19 23 9 24 10 25
ROOT
ATOM      1  F   UNL     1     100.186  91.084 119.690  1.00  0.00    -0.207 F 
ATOM      2  O   UNL     1     104.333  93.785 120.384  1.00  0.00    -0.268 OA
ATOM      3  N   UNL     1     105.602  92.787 113.742  1.00  0.00    -0.291 NA
ATOM      4  N   UNL     1     102.387  91.583 115.370  1.00  0.00    -0.356 N 
ATOM      5  N   UNL     1     106.154  92.691 117.509  1.00  0.00    -0.225 NA
ATOM      6  N   UNL     1     105.733  93.427 118.618  1.00  0.00    -0.287 N 
ATOM      7  C   UNL     1     104.262  92.118 113.698  1.00  0.00     0.059 C 
ATOM      8  C   UNL     1     103.452  92.963 112.692  1.00  0.00     0.030 C 
ATOM      9  C   UNL     1     103.611  92.106 115.051  1.00  0.00     0.041 A 
ATOM     10  C   UNL     1     106.332  92.677 115.022  1.00  0.00     0.111 C 
ATOM     11  C   UNL     1     105.425  94.162 113.282  1.00  0.00     0.085 C 
ATOM     12  C   UNL     1     105.535  93.161 116.265  1.00  0.00     0.121 C 
ATOM     13  C   UNL     1     104.437  93.988 112.148  1.00  0.00     0.018 C 
ATOM     14  C   UNL     1     104.179  92.572 116.212  1.00  0.00     0.003 A 
ATOM     15  C   UNL     1     104.463  90.687 113.181  1.00  0.00     0.035 C 
ATOM     16  C   UNL     1     103.301  92.305 117.283  1.00  0.00     0.018 A 
ATOM     17  C   UNL     1     102.182  91.674 116.734  1.00  0.00     0.050 A 
ATOM     18  C   UNL     1     103.380  92.531 118.667  1.00  0.00     0.053 A 
ATOM     19  C   UNL     1     101.109  91.248 117.521  1.00  0.00     0.066 A 
ATOM     20  C   UNL     1     104.516  93.272 119.278  1.00  0.00     0.266 C 
ATOM     21  C   UNL     1     102.304  92.109 119.464  1.00  0.00     0.054 A 
ATOM     22  C   UNL     1     101.194  91.476 118.898  1.00  0.00     0.126 A 
ATOM     23  H   UNL     1     101.744  91.156 114.716  1.00  0.00     0.166 HD
ATOM     24  H   UNL     1     107.165  92.820 117.451  1.00  0.00     0.148 HD
ATOM     25  H   UNL     1     106.445  94.002 119.059  1.00  0.00     0.185 HD
ENDROOT
TORSDOF 0
ENDMDL
