MODEL 1
REMARK VINA RESULT:      -8.9      0.000      0.000
REMARK SMILES CC1=CC(C)(C)N(C)c2cc(C)c(C=NNC(=O)COc3cccc4cccnc34)cc21
REMARK SMILES IDX 18 1 16 2 17 3 19 5 20 6 21 7 30 8 22 9 29 10 25 11 23 12
REMARK SMILES IDX 28 13 24 14 26 15 27 16 15 17 14 18 13 19 31 20 11 21 32 22
REMARK SMILES IDX 10 23 9 24 2 25 7 26 3 27 4 28 12 29 1 30 8 31 5 32 6 33
REMARK H PARENT 16 4
ROOT
ATOM      1  O   UNL     1     111.352  94.653 118.935  1.00  0.00    -0.269 OA
ATOM      2  N   UNL     1     109.317  94.839 120.036  1.00  0.00    -0.244 N 
ATOM      3  C   UNL     1     110.687  94.984 119.914  1.00  0.00     0.277 C 
ATOM      4  H   UNL     1     108.805  95.126 120.865  1.00  0.00     0.193 HD
ENDROOT
BRANCH   3   5
ATOM      5  C   UNL     1     111.293  95.611 121.148  1.00  0.00     0.331 C 
BRANCH   5   6
ATOM      6  O   UNL     1     112.222  94.718 121.727  1.00  0.00    -0.481 OA
BRANCH   6   7
ATOM      7  C   UNL     1     113.361  95.263 122.270  1.00  0.00     0.146 A 
ATOM      8  C   UNL     1     114.613  94.862 121.813  1.00  0.00     0.112 A 
ATOM      9  C   UNL     1     113.221  96.218 123.280  1.00  0.00     0.049 A 
ATOM     10  N   UNL     1     114.712  93.939 120.837  1.00  0.00    -0.252 NA
ATOM     11  C   UNL     1     115.753  95.450 122.399  1.00  0.00     0.004 A 
ATOM     12  C   UNL     1     114.349  96.793 123.854  1.00  0.00     0.005 A 
ATOM     13  C   UNL     1     115.948  93.577 120.422  1.00  0.00     0.112 A 
ATOM     14  C   UNL     1     115.612  96.411 123.415  1.00  0.00     0.010 A 
ATOM     15  C   UNL     1     117.015  95.046 121.940  1.00  0.00     0.012 A 
ATOM     16  C   UNL     1     117.120  94.095 120.935  1.00  0.00     0.021 A 
ENDBRANCH   6   7
ENDBRANCH   5   6
ENDBRANCH   3   5
BRANCH   2  17
ATOM     17  N   UNL     1     108.626  94.292 119.010  1.00  0.00    -0.181 NA
ATOM     18  C   UNL     1     107.330  94.361 119.133  1.00  0.00     0.141 C 
BRANCH  18  19
ATOM     19  C   UNL     1     106.418  93.827 118.131  1.00  0.00    -0.002 A 
ATOM     20  C   UNL     1     106.866  93.667 116.823  1.00  0.00     0.020 A 
ATOM     21  C   UNL     1     105.119  93.477 118.452  1.00  0.00    -0.040 A 
ATOM     22  C   UNL     1     106.023  93.155 115.814  1.00  0.00     0.001 A 
ATOM     23  C   UNL     1     104.273  92.969 117.465  1.00  0.00     0.030 A 
ATOM     24  C   UNL     1     104.690  92.793 116.124  1.00  0.00     0.045 A 
ATOM     25  C   UNL     1     106.524  92.997 114.435  1.00  0.00    -0.043 C 
ATOM     26  N   UNL     1     103.827  92.283 115.147  1.00  0.00    -0.365 N 
ATOM     27  C   UNL     1     105.690  92.507 113.508  1.00  0.00     0.004 C 
ATOM     28  C   UNL     1     104.256  92.094 113.742  1.00  0.00     0.053 C 
ATOM     29  C   UNL     1     104.598  93.632 119.844  1.00  0.00     0.045 C 
ATOM     30  C   UNL     1     107.934  93.373 114.078  1.00  0.00     0.045 C 
ATOM     31  C   UNL     1     102.458  91.924 115.526  1.00  0.00     0.144 C 
ATOM     32  C   UNL     1     104.146  90.605 113.361  1.00  0.00     0.039 C 
ATOM     33  C   UNL     1     103.380  92.954 112.811  1.00  0.00     0.039 C 
ENDBRANCH  18  19
ENDBRANCH   2  17
TORSDOF 5
ENDMDL
MODEL 2
REMARK VINA RESULT:      -8.3      2.474     11.156
REMARK SMILES CC1=CC(C)(C)N(C)c2cc(C)c(C=NNC(=O)COc3cccc4cccnc34)cc21
REMARK SMILES IDX 18 1 16 2 17 3 19 5 20 6 21 7 30 8 22 9 29 10 25 11 23 12
REMARK SMILES IDX 28 13 24 14 26 15 27 16 15 17 14 18 13 19 31 20 11 21 32 22
REMARK SMILES IDX 10 23 9 24 2 25 7 26 3 27 4 28 12 29 1 30 8 31 5 32 6 33
REMARK H PARENT 16 4
ROOT
ATOM      1  O   UNL     1     109.226  94.040 118.008  1.00  0.00    -0.269 OA
ATOM      2  N   UNL     1     108.698  94.829 120.126  1.00  0.00    -0.244 N 
ATOM      3  C   UNL     1     108.401  94.332 118.871  1.00  0.00     0.277 C 
ATOM      4  H   UNL     1     107.983  95.058 120.811  1.00  0.00     0.193 HD
ENDROOT
BRANCH   3   5
ATOM      5  C   UNL     1     106.910  94.183 118.669  1.00  0.00     0.331 C 
BRANCH   5   6
ATOM      6  O   UNL     1     106.654  93.692 117.370  1.00  0.00    -0.481 OA
BRANCH   6   7
ATOM      7  C   UNL     1     106.214  94.597 116.432  1.00  0.00     0.146 A 
ATOM      8  C   UNL     1     106.567  94.443 115.094  1.00  0.00     0.112 A 
ATOM      9  C   UNL     1     105.413  95.657 116.861  1.00  0.00     0.049 A 
ATOM     10  N   UNL     1     107.341  93.408 114.715  1.00  0.00    -0.252 NA
ATOM     11  C   UNL     1     106.091  95.395 114.170  1.00  0.00     0.004 A 
ATOM     12  C   UNL     1     104.947  96.592 115.944  1.00  0.00     0.005 A 
ATOM     13  C   UNL     1     107.661  93.296 113.405  1.00  0.00     0.112 A 
ATOM     14  C   UNL     1     105.285  96.462 114.601  1.00  0.00     0.010 A 
ATOM     15  C   UNL     1     106.447  95.241 112.822  1.00  0.00     0.012 A 
ATOM     16  C   UNL     1     107.244  94.177 112.428  1.00  0.00     0.021 A 
ENDBRANCH   6   7
ENDBRANCH   5   6
ENDBRANCH   3   5
BRANCH   2  17
ATOM     17  N   UNL     1     109.995  95.019 120.462  1.00  0.00    -0.181 NA
ATOM     18  C   UNL     1     110.230  96.127 121.106  1.00  0.00     0.141 C 
BRANCH  18  19
ATOM     19  C   UNL     1     111.563  96.507 121.551  1.00  0.00    -0.002 A 
ATOM     20  C   UNL     1     112.465  95.513 121.919  1.00  0.00     0.020 A 
ATOM     21  C   UNL     1     111.951  97.834 121.617  1.00  0.00    -0.040 A 
ATOM     22  C   UNL     1     113.768  95.826 122.359  1.00  0.00     0.001 A 
ATOM     23  C   UNL     1     113.237  98.160 122.050  1.00  0.00     0.030 A 
ATOM     24  C   UNL     1     114.181  97.178 122.433  1.00  0.00     0.045 A 
ATOM     25  C   UNL     1     114.703  94.751 122.743  1.00  0.00    -0.043 C 
ATOM     26  N   UNL     1     115.467  97.525 122.865  1.00  0.00    -0.365 N 
ATOM     27  C   UNL     1     115.930  95.093 123.155  1.00  0.00     0.004 C 
ATOM     28  C   UNL     1     116.462  96.503 123.267  1.00  0.00     0.053 C 
ATOM     29  C   UNL     1     111.015  98.933 121.231  1.00  0.00     0.045 C 
ATOM     30  C   UNL     1     114.290  93.308 122.673  1.00  0.00     0.045 C 
ATOM     31  C   UNL     1     115.840  98.940 122.921  1.00  0.00     0.144 C 
ATOM     32  C   UNL     1     117.699  96.595 122.353  1.00  0.00     0.039 C 
ATOM     33  C   UNL     1     116.863  96.719 124.739  1.00  0.00     0.039 C 
ENDBRANCH  18  19
ENDBRANCH   2  17
TORSDOF 5
ENDMDL
MODEL 3
REMARK VINA RESULT:      -8.2      1.065      2.091
REMARK SMILES CC1=CC(C)(C)N(C)c2cc(C)c(C=NNC(=O)COc3cccc4cccnc34)cc21
REMARK SMILES IDX 18 1 16 2 17 3 19 5 20 6 21 7 30 8 22 9 29 10 25 11 23 12
REMARK SMILES IDX 28 13 24 14 26 15 27 16 15 17 14 18 13 19 31 20 11 21 32 22
REMARK SMILES IDX 10 23 9 24 2 25 7 26 3 27 4 28 12 29 1 30 8 31 5 32 6 33
REMARK H PARENT 16 4
ROOT
ATOM      1  O   UNL     1     111.354  94.666 119.036  1.00  0.00    -0.269 OA
ATOM      2  N   UNL     1     109.376  95.035 120.193  1.00  0.00    -0.244 N 
ATOM      3  C   UNL     1     110.730  95.187 119.957  1.00  0.00     0.277 C 
ATOM      4  H   UNL     1     108.898  95.484 120.968  1.00  0.00     0.193 HD
ENDROOT
BRANCH   3   5
ATOM      5  C   UNL     1     111.376  96.088 120.984  1.00  0.00     0.331 C 
BRANCH   5   6
ATOM      6  O   UNL     1     111.809  95.318 122.086  1.00  0.00    -0.481 OA
BRANCH   6   7
ATOM      7  C   UNL     1     113.164  95.245 122.307  1.00  0.00     0.146 A 
ATOM      8  C   UNL     1     113.764  96.077 123.248  1.00  0.00     0.112 A 
ATOM      9  C   UNL     1     113.906  94.322 121.566  1.00  0.00     0.049 A 
ATOM     10  N   UNL     1     113.019  96.956 123.945  1.00  0.00    -0.252 NA
ATOM     11  C   UNL     1     115.157  95.964 123.440  1.00  0.00     0.004 A 
ATOM     12  C   UNL     1     115.278  94.217 121.761  1.00  0.00     0.005 A 
ATOM     13  C   UNL     1     113.642  97.746 124.850  1.00  0.00     0.112 A 
ATOM     14  C   UNL     1     115.903  95.035 122.696  1.00  0.00     0.010 A 
ATOM     15  C   UNL     1     115.762  96.802 124.388  1.00  0.00     0.012 A 
ATOM     16  C   UNL     1     114.997  97.709 125.107  1.00  0.00     0.021 A 
ENDBRANCH   6   7
ENDBRANCH   5   6
ENDBRANCH   3   5
BRANCH   2  17
ATOM     17  N   UNL     1     108.653  94.255 119.356  1.00  0.00    -0.181 NA
ATOM     18  C   UNL     1     107.521  94.775 118.975  1.00  0.00     0.141 C 
BRANCH  18  19
ATOM     19  C   UNL     1     106.605  94.087 118.076  1.00  0.00    -0.002 A 
ATOM     20  C   UNL     1     106.985  93.872 116.754  1.00  0.00     0.020 A 
ATOM     21  C   UNL     1     105.367  93.644 118.508  1.00  0.00    -0.040 A 
ATOM     22  C   UNL     1     106.135  93.212 115.842  1.00  0.00     0.001 A 
ATOM     23  C   UNL     1     104.515  92.989 117.617  1.00  0.00     0.030 A 
ATOM     24  C   UNL     1     104.865  92.752 116.266  1.00  0.00     0.045 A 
ATOM     25  C   UNL     1     106.564  92.998 114.446  1.00  0.00    -0.043 C 
ATOM     26  N   UNL     1     103.997  92.094 115.387  1.00  0.00    -0.365 N 
ATOM     27  C   UNL     1     105.726  92.367 113.614  1.00  0.00     0.004 C 
ATOM     28  C   UNL     1     104.355  91.842 113.972  1.00  0.00     0.053 C 
ATOM     29  C   UNL     1     104.920  93.854 119.918  1.00  0.00     0.045 C 
ATOM     30  C   UNL     1     107.907  93.475 113.970  1.00  0.00     0.045 C 
ATOM     31  C   UNL     1     102.695  91.640 115.881  1.00  0.00     0.144 C 
ATOM     32  C   UNL     1     104.367  90.325 113.701  1.00  0.00     0.039 C 
ATOM     33  C   UNL     1     103.345  92.547 113.047  1.00  0.00     0.039 C 
ENDBRANCH  18  19
ENDBRANCH   2  17
TORSDOF 5
ENDMDL
MODEL 4
REMARK VINA RESULT:      -8.0      2.834      4.047
REMARK SMILES CC1=CC(C)(C)N(C)c2cc(C)c(C=NNC(=O)COc3cccc4cccnc34)cc21
REMARK SMILES IDX 18 1 16 2 17 3 19 5 20 6 21 7 30 8 22 9 29 10 25 11 23 12
REMARK SMILES IDX 28 13 24 14 26 15 27 16 15 17 14 18 13 19 31 20 11 21 32 22
REMARK SMILES IDX 10 23 9 24 2 25 7 26 3 27 4 28 12 29 1 30 8 31 5 32 6 33
REMARK H PARENT 16 4
ROOT
ATOM      1  O   UNL     1     111.211  94.665 119.225  1.00  0.00    -0.269 OA
ATOM      2  N   UNL     1     109.134  94.940 120.222  1.00  0.00    -0.244 N 
ATOM      3  C   UNL     1     110.505  95.093 120.135  1.00  0.00     0.277 C 
ATOM      4  H   UNL     1     108.586  95.310 120.994  1.00  0.00     0.193 HD
ENDROOT
BRANCH   3   5
ATOM      5  C   UNL     1     111.055  95.864 121.313  1.00  0.00     0.331 C 
BRANCH   5   6
ATOM      6  O   UNL     1     111.540  97.117 120.875  1.00  0.00    -0.481 OA
BRANCH   6   7
ATOM      7  C   UNL     1     110.756  98.218 121.131  1.00  0.00     0.146 A 
ATOM      8  C   UNL     1     111.074  99.448 120.564  1.00  0.00     0.112 A 
ATOM      9  C   UNL     1     109.646  98.060 121.965  1.00  0.00     0.049 A 
ATOM     10  N   UNL     1     112.150  99.565 119.764  1.00  0.00    -0.252 NA
ATOM     11  C   UNL     1     110.239 100.547 120.854  1.00  0.00     0.004 A 
ATOM     12  C   UNL     1     108.829  99.147 122.247  1.00  0.00     0.005 A 
ATOM     13  C   UNL     1     112.425 100.779 119.234  1.00  0.00     0.112 A 
ATOM     14  C   UNL     1     109.123 100.389 121.693  1.00  0.00     0.010 A 
ATOM     15  C   UNL     1     110.559 101.788 120.284  1.00  0.00     0.012 A 
ATOM     16  C   UNL     1     111.668 101.911 119.460  1.00  0.00     0.021 A 
ENDBRANCH   6   7
ENDBRANCH   5   6
ENDBRANCH   3   5
BRANCH   2  17
ATOM     17  N   UNL     1     108.488  94.270 119.240  1.00  0.00    -0.181 NA
ATOM     18  C   UNL     1     107.211  94.516 119.166  1.00  0.00     0.141 C 
BRANCH  18  19
ATOM     19  C   UNL     1     106.349  93.889 118.173  1.00  0.00    -0.002 A 
ATOM     20  C   UNL     1     106.815  93.732 116.872  1.00  0.00     0.020 A 
ATOM     21  C   UNL     1     105.078  93.449 118.498  1.00  0.00    -0.040 A 
ATOM     22  C   UNL     1     106.020  93.133 115.872  1.00  0.00     0.001 A 
ATOM     23  C   UNL     1     104.279  92.855 117.520  1.00  0.00     0.030 A 
ATOM     24  C   UNL     1     104.716  92.678 116.186  1.00  0.00     0.045 A 
ATOM     25  C   UNL     1     106.540  92.980 114.500  1.00  0.00    -0.043 C 
ATOM     26  N   UNL     1     103.901  92.080 115.218  1.00  0.00    -0.365 N 
ATOM     27  C   UNL     1     105.751  92.406 113.582  1.00  0.00     0.004 C 
ATOM     28  C   UNL     1     104.351  91.890 113.820  1.00  0.00     0.053 C 
ATOM     29  C   UNL     1     104.538  93.598 119.883  1.00  0.00     0.045 C 
ATOM     30  C   UNL     1     107.919  93.454 114.140  1.00  0.00     0.045 C 
ATOM     31  C   UNL     1     102.561  91.627 115.600  1.00  0.00     0.144 C 
ATOM     32  C   UNL     1     104.358  90.389 113.475  1.00  0.00     0.039 C 
ATOM     33  C   UNL     1     103.418  92.658 112.864  1.00  0.00     0.039 C 
ENDBRANCH  18  19
ENDBRANCH   2  17
TORSDOF 5
ENDMDL
MODEL 5
REMARK VINA RESULT:      -7.8      6.611     10.152
REMARK SMILES CC1=CC(C)(C)N(C)c2cc(C)c(C=NNC(=O)COc3cccc4cccnc34)cc21
REMARK SMILES IDX 18 1 16 2 17 3 19 5 20 6 21 7 30 8 22 9 29 10 25 11 23 12
REMARK SMILES IDX 28 13 24 14 26 15 27 16 15 17 14 18 13 19 31 20 11 21 32 22
REMARK SMILES IDX 10 23 9 24 2 25 7 26 3 27 4 28 12 29 1 30 8 31 5 32 6 33
REMARK H PARENT 16 4
ROOT
ATOM      1  O   UNL     1     107.499  94.159 114.297  1.00  0.00    -0.269 OA
ATOM      2  N   UNL     1     106.067  92.449 113.657  1.00  0.00    -0.244 N 
ATOM      3  C   UNL     1     107.012  93.432 113.434  1.00  0.00     0.277 C 
ATOM      4  H   UNL     1     105.689  91.870 112.912  1.00  0.00     0.193 HD
ENDROOT
BRANCH   3   5
ATOM      5  C   UNL     1     107.391  93.521 111.973  1.00  0.00     0.331 C 
BRANCH   5   6
ATOM      6  O   UNL     1     106.286  93.983 111.224  1.00  0.00    -0.481 OA
BRANCH   6   7
ATOM      7  C   UNL     1     105.721  95.176 111.608  1.00  0.00     0.146 A 
ATOM      8  C   UNL     1     104.388  95.221 112.006  1.00  0.00     0.112 A 
ATOM      9  C   UNL     1     106.520  96.323 111.588  1.00  0.00     0.049 A 
ATOM     10  N   UNL     1     103.647  94.097 112.014  1.00  0.00    -0.252 NA
ATOM     11  C   UNL     1     103.854  96.467 112.394  1.00  0.00     0.004 A 
ATOM     12  C   UNL     1     105.986  97.547 111.971  1.00  0.00     0.005 A 
ATOM     13  C   UNL     1     102.356  94.185 112.406  1.00  0.00     0.112 A 
ATOM     14  C   UNL     1     104.656  97.621 112.373  1.00  0.00     0.010 A 
ATOM     15  C   UNL     1     102.511  96.514 112.793  1.00  0.00     0.012 A 
ATOM     16  C   UNL     1     101.745  95.358 112.802  1.00  0.00     0.021 A 
ENDBRANCH   6   7
ENDBRANCH   5   6
ENDBRANCH   3   5
BRANCH   2  17
ATOM     17  N   UNL     1     105.623  92.244 114.919  1.00  0.00    -0.181 NA
ATOM     18  C   UNL     1     104.796  93.151 115.355  1.00  0.00     0.141 C 
BRANCH  18  19
ATOM     19  C   UNL     1     104.212  93.103 116.688  1.00  0.00    -0.002 A 
ATOM     20  C   UNL     1     103.005  92.439 116.876  1.00  0.00     0.020 A 
ATOM     21  C   UNL     1     104.832  93.706 117.769  1.00  0.00    -0.040 A 
ATOM     22  C   UNL     1     102.396  92.364 118.147  1.00  0.00     0.001 A 
ATOM     23  C   UNL     1     104.242  93.640 119.032  1.00  0.00     0.030 A 
ATOM     24  C   UNL     1     103.015  92.974 119.264  1.00  0.00     0.045 A 
ATOM     25  C   UNL     1     101.114  91.652 118.317  1.00  0.00    -0.043 C 
ATOM     26  N   UNL     1     102.438  92.920 120.538  1.00  0.00    -0.365 N 
ATOM     27  C   UNL     1     100.571  91.605 119.540  1.00  0.00     0.004 C 
ATOM     28  C   UNL     1     101.155  92.224 120.789  1.00  0.00     0.053 C 
ATOM     29  C   UNL     1     106.130  94.430 117.611  1.00  0.00     0.045 C 
ATOM     30  C   UNL     1     100.436  90.994 117.149  1.00  0.00     0.045 C 
ATOM     31  C   UNL     1     103.124  93.570 121.657  1.00  0.00     0.144 C 
ATOM     32  C   UNL     1     101.371  91.083 121.801  1.00  0.00     0.039 C 
ATOM     33  C   UNL     1     100.116  93.228 121.324  1.00  0.00     0.039 C 
ENDBRANCH  18  19
ENDBRANCH   2  17
TORSDOF 5
ENDMDL
MODEL 6
REMARK VINA RESULT:      -7.8      1.449      1.827
REMARK SMILES CC1=CC(C)(C)N(C)c2cc(C)c(C=NNC(=O)COc3cccc4cccnc34)cc21
REMARK SMILES IDX 18 1 16 2 17 3 19 5 20 6 21 7 30 8 22 9 29 10 25 11 23 12
REMARK SMILES IDX 28 13 24 14 26 15 27 16 15 17 14 18 13 19 31 20 11 21 32 22
REMARK SMILES IDX 10 23 9 24 2 25 7 26 3 27 4 28 12 29 1 30 8 31 5 32 6 33
REMARK H PARENT 16 4
ROOT
ATOM      1  O   UNL     1     110.971  94.673 119.325  1.00  0.00    -0.269 OA
ATOM      2  N   UNL     1     108.881  95.013 120.275  1.00  0.00    -0.244 N 
ATOM      3  C   UNL     1     110.252  95.163 120.193  1.00  0.00     0.277 C 
ATOM      4  H   UNL     1     108.324  95.436 121.012  1.00  0.00     0.193 HD
ENDROOT
BRANCH   3   5
ATOM      5  C   UNL     1     110.787  96.018 121.319  1.00  0.00     0.331 C 
BRANCH   5   6
ATOM      6  O   UNL     1     112.179  96.201 121.156  1.00  0.00    -0.481 OA
BRANCH   6   7
ATOM      7  C   UNL     1     112.803  97.067 122.022  1.00  0.00     0.146 A 
ATOM      8  C   UNL     1     113.690  96.581 122.978  1.00  0.00     0.112 A 
ATOM      9  C   UNL     1     112.522  98.431 121.909  1.00  0.00     0.049 A 
ATOM     10  N   UNL     1     113.938  95.260 123.059  1.00  0.00    -0.252 NA
ATOM     11  C   UNL     1     114.307  97.509 123.843  1.00  0.00     0.004 A 
ATOM     12  C   UNL     1     113.134  99.339 122.764  1.00  0.00     0.005 A 
ATOM     13  C   UNL     1     114.806  94.829 124.004  1.00  0.00     0.112 A 
ATOM     14  C   UNL     1     114.025  98.881 123.729  1.00  0.00     0.010 A 
ATOM     15  C   UNL     1     115.200  97.020 124.807  1.00  0.00     0.012 A 
ATOM     16  C   UNL     1     115.458  95.659 124.893  1.00  0.00     0.021 A 
ENDBRANCH   6   7
ENDBRANCH   5   6
ENDBRANCH   3   5
BRANCH   2  17
ATOM     17  N   UNL     1     108.248  94.273 119.335  1.00  0.00    -0.181 NA
ATOM     18  C   UNL     1     107.028  94.651 119.080  1.00  0.00     0.141 C 
BRANCH  18  19
ATOM     19  C   UNL     1     106.188  93.976 118.099  1.00  0.00    -0.002 A 
ATOM     20  C   UNL     1     106.662  93.807 116.802  1.00  0.00     0.020 A 
ATOM     21  C   UNL     1     104.930  93.504 118.431  1.00  0.00    -0.040 A 
ATOM     22  C   UNL     1     105.888  93.162 115.814  1.00  0.00     0.001 A 
ATOM     23  C   UNL     1     104.153  92.864 117.464  1.00  0.00     0.030 A 
ATOM     24  C   UNL     1     104.599  92.673 116.135  1.00  0.00     0.045 A 
ATOM     25  C   UNL     1     106.416  92.996 114.446  1.00  0.00    -0.043 C 
ATOM     26  N   UNL     1     103.805  92.030 115.179  1.00  0.00    -0.365 N 
ATOM     27  C   UNL     1     105.649  92.379 113.539  1.00  0.00     0.004 C 
ATOM     28  C   UNL     1     104.265  91.825 113.785  1.00  0.00     0.053 C 
ATOM     29  C   UNL     1     104.383  93.665 119.812  1.00  0.00     0.045 C 
ATOM     30  C   UNL     1     107.781  93.505 114.079  1.00  0.00     0.045 C 
ATOM     31  C   UNL     1     102.479  91.544 115.567  1.00  0.00     0.144 C 
ATOM     32  C   UNL     1     104.319  90.317 113.472  1.00  0.00     0.039 C 
ATOM     33  C   UNL     1     103.311  92.543 112.812  1.00  0.00     0.039 C 
ENDBRANCH  18  19
ENDBRANCH   2  17
TORSDOF 5
ENDMDL
MODEL 7
REMARK VINA RESULT:      -7.8      2.809      4.533
REMARK SMILES CC1=CC(C)(C)N(C)c2cc(C)c(C=NNC(=O)COc3cccc4cccnc34)cc21
REMARK SMILES IDX 18 1 16 2 17 3 19 5 20 6 21 7 30 8 22 9 29 10 25 11 23 12
REMARK SMILES IDX 28 13 24 14 26 15 27 16 15 17 14 18 13 19 31 20 11 21 32 22
REMARK SMILES IDX 10 23 9 24 2 25 7 26 3 27 4 28 12 29 1 30 8 31 5 32 6 33
REMARK H PARENT 16 4
ROOT
ATOM      1  O   UNL     1     111.244  94.628 119.115  1.00  0.00    -0.269 OA
ATOM      2  N   UNL     1     109.197  94.943 120.162  1.00  0.00    -0.244 N 
ATOM      3  C   UNL     1     110.566  95.087 120.030  1.00  0.00     0.277 C 
ATOM      4  H   UNL     1     108.674  95.339 120.937  1.00  0.00     0.193 HD
ENDROOT
BRANCH   3   5
ATOM      5  C   UNL     1     111.153  95.892 121.167  1.00  0.00     0.331 C 
BRANCH   5   6
ATOM      6  O   UNL     1     110.224  96.870 121.585  1.00  0.00    -0.481 OA
BRANCH   6   7
ATOM      7  C   UNL     1     110.452  98.165 121.183  1.00  0.00     0.146 A 
ATOM      8  C   UNL     1     109.507  99.154 121.444  1.00  0.00     0.112 A 
ATOM      9  C   UNL     1     111.646  98.450 120.516  1.00  0.00     0.049 A 
ATOM     10  N   UNL     1     108.367  98.845 122.090  1.00  0.00    -0.252 NA
ATOM     11  C   UNL     1     109.786 100.468 121.014  1.00  0.00     0.004 A 
ATOM     12  C   UNL     1     111.914  99.747 120.095  1.00  0.00     0.005 A 
ATOM     13  C   UNL     1     107.475  99.835 122.322  1.00  0.00     0.112 A 
ATOM     14  C   UNL     1     110.987 100.754 120.343  1.00  0.00     0.010 A 
ATOM     15  C   UNL     1     108.835 101.464 121.275  1.00  0.00     0.012 A 
ATOM     16  C   UNL     1     107.659 101.148 121.940  1.00  0.00     0.021 A 
ENDBRANCH   6   7
ENDBRANCH   5   6
ENDBRANCH   3   5
BRANCH   2  17
ATOM     17  N   UNL     1     108.522  94.245 119.220  1.00  0.00    -0.181 NA
ATOM     18  C   UNL     1     107.278  94.604 119.070  1.00  0.00     0.141 C 
BRANCH  18  19
ATOM     19  C   UNL     1     106.390  93.969 118.105  1.00  0.00    -0.002 A 
ATOM     20  C   UNL     1     106.828  93.789 116.797  1.00  0.00     0.020 A 
ATOM     21  C   UNL     1     105.123  93.544 118.462  1.00  0.00    -0.040 A 
ATOM     22  C   UNL     1     106.008  93.181 115.823  1.00  0.00     0.001 A 
ATOM     23  C   UNL     1     104.300  92.941 117.510  1.00  0.00     0.030 A 
ATOM     24  C   UNL     1     104.708  92.741 116.170  1.00  0.00     0.045 A 
ATOM     25  C   UNL     1     106.498  93.003 114.443  1.00  0.00    -0.043 C 
ATOM     26  N   UNL     1     103.868  92.134 115.229  1.00  0.00    -0.365 N 
ATOM     27  C   UNL     1     105.687  92.422 113.550  1.00  0.00     0.004 C 
ATOM     28  C   UNL     1     104.288  91.920 113.824  1.00  0.00     0.053 C 
ATOM     29  C   UNL     1     104.613  93.717 119.857  1.00  0.00     0.045 C 
ATOM     30  C   UNL     1     107.874  93.461 114.048  1.00  0.00     0.045 C 
ATOM     31  C   UNL     1     102.533  91.698 115.645  1.00  0.00     0.144 C 
ATOM     32  C   UNL     1     104.277  90.414 113.502  1.00  0.00     0.039 C 
ATOM     33  C   UNL     1     103.342  92.681 112.877  1.00  0.00     0.039 C 
ENDBRANCH  18  19
ENDBRANCH   2  17
TORSDOF 5
ENDMDL
MODEL 8
REMARK VINA RESULT:      -7.7      6.531      8.175
REMARK SMILES CC1=CC(C)(C)N(C)c2cc(C)c(C=NNC(=O)COc3cccc4cccnc34)cc21
REMARK SMILES IDX 18 1 16 2 17 3 19 5 20 6 21 7 30 8 22 9 29 10 25 11 23 12
REMARK SMILES IDX 28 13 24 14 26 15 27 16 15 17 14 18 13 19 31 20 11 21 32 22
REMARK SMILES IDX 10 23 9 24 2 25 7 26 3 27 4 28 12 29 1 30 8 31 5 32 6 33
REMARK H PARENT 16 4
ROOT
ATOM      1  O   UNL     1     102.685 101.002 117.014  1.00  0.00    -0.269 OA
ATOM      2  N   UNL     1     103.422  99.672 118.767  1.00  0.00    -0.244 N 
ATOM      3  C   UNL     1     102.967 100.848 118.200  1.00  0.00     0.277 C 
ATOM      4  H   UNL     1     103.644  99.588 119.755  1.00  0.00     0.193 HD
ENDROOT
BRANCH   3   5
ATOM      5  C   UNL     1     102.852 101.953 119.225  1.00  0.00     0.331 C 
BRANCH   5   6
ATOM      6  O   UNL     1     103.913 101.853 120.152  1.00  0.00    -0.481 OA
BRANCH   6   7
ATOM      7  C   UNL     1     104.884 102.825 120.101  1.00  0.00     0.146 A 
ATOM      8  C   UNL     1     106.229 102.472 120.172  1.00  0.00     0.112 A 
ATOM      9  C   UNL     1     104.482 104.157 119.976  1.00  0.00     0.049 A 
ATOM     10  N   UNL     1     106.582 101.178 120.292  1.00  0.00    -0.252 NA
ATOM     11  C   UNL     1     107.189 103.503 120.114  1.00  0.00     0.004 A 
ATOM     12  C   UNL     1     105.433 105.167 119.919  1.00  0.00     0.005 A 
ATOM     13  C   UNL     1     107.900 100.878 120.359  1.00  0.00     0.112 A 
ATOM     14  C   UNL     1     106.784 104.843 119.988  1.00  0.00     0.010 A 
ATOM     15  C   UNL     1     108.544 103.149 120.187  1.00  0.00     0.012 A 
ATOM     16  C   UNL     1     108.911 101.817 120.311  1.00  0.00     0.021 A 
ENDBRANCH   6   7
ENDBRANCH   5   6
ENDBRANCH   3   5
BRANCH   2  17
ATOM     17  N   UNL     1     103.578  98.585 117.978  1.00  0.00    -0.181 NA
ATOM     18  C   UNL     1     104.813  98.195 117.833  1.00  0.00     0.141 C 
BRANCH  18  19
ATOM     19  C   UNL     1     105.181  97.043 117.020  1.00  0.00    -0.002 A 
ATOM     20  C   UNL     1     105.352  97.209 115.649  1.00  0.00     0.020 A 
ATOM     21  C   UNL     1     105.361  95.792 117.581  1.00  0.00    -0.040 A 
ATOM     22  C   UNL     1     105.707  96.127 114.815  1.00  0.00     0.001 A 
ATOM     23  C   UNL     1     105.713  94.712 116.770  1.00  0.00     0.030 A 
ATOM     24  C   UNL     1     105.896  94.839 115.373  1.00  0.00     0.045 A 
ATOM     25  C   UNL     1     105.882  96.331 113.365  1.00  0.00    -0.043 C 
ATOM     26  N   UNL     1     106.247  93.744 114.575  1.00  0.00    -0.365 N 
ATOM     27  C   UNL     1     106.219  95.276 112.611  1.00  0.00     0.004 C 
ATOM     28  C   UNL     1     106.441  93.868 113.112  1.00  0.00     0.053 C 
ATOM     29  C   UNL     1     105.187  95.571 119.049  1.00  0.00     0.045 C 
ATOM     30  C   UNL     1     105.689  97.687 112.747  1.00  0.00     0.045 C 
ATOM     31  C   UNL     1     106.429  92.434 115.206  1.00  0.00     0.144 C 
ATOM     32  C   UNL     1     107.886  93.480 112.744  1.00  0.00     0.039 C 
ATOM     33  C   UNL     1     105.436  92.963 112.375  1.00  0.00     0.039 C 
ENDBRANCH  18  19
ENDBRANCH   2  17
TORSDOF 5
ENDMDL
MODEL 9
REMARK VINA RESULT:      -7.6      6.231     10.743
REMARK SMILES CC1=CC(C)(C)N(C)c2cc(C)c(C=NNC(=O)COc3cccc4cccnc34)cc21
REMARK SMILES IDX 18 1 16 2 17 3 19 5 20 6 21 7 30 8 22 9 29 10 25 11 23 12
REMARK SMILES IDX 28 13 24 14 26 15 27 16 15 17 14 18 13 19 31 20 11 21 32 22
REMARK SMILES IDX 10 23 9 24 2 25 7 26 3 27 4 28 12 29 1 30 8 31 5 32 6 33
REMARK H PARENT 16 4
ROOT
ATOM      1  O   UNL     1     107.065  94.946 119.071  1.00  0.00    -0.269 OA
ATOM      2  N   UNL     1     105.666  95.886 117.475  1.00  0.00    -0.244 N 
ATOM      3  C   UNL     1     106.517  94.916 117.971  1.00  0.00     0.277 C 
ATOM      4  H   UNL     1     105.234  95.823 116.558  1.00  0.00     0.193 HD
ENDROOT
BRANCH   3   5
ATOM      5  C   UNL     1     106.706  93.785 116.987  1.00  0.00     0.331 C 
BRANCH   5   6
ATOM      6  O   UNL     1     105.759  93.899 115.945  1.00  0.00    -0.481 OA
BRANCH   6   7
ATOM      7  C   UNL     1     106.245  94.103 114.675  1.00  0.00     0.146 A 
ATOM      8  C   UNL     1     105.748  95.144 113.896  1.00  0.00     0.112 A 
ATOM      9  C   UNL     1     107.241  93.244 114.202  1.00  0.00     0.049 A 
ATOM     10  N   UNL     1     104.789  95.953 114.383  1.00  0.00    -0.252 NA
ATOM     11  C   UNL     1     106.279  95.314 112.600  1.00  0.00     0.004 A 
ATOM     12  C   UNL     1     107.759  93.418 112.925  1.00  0.00     0.005 A 
ATOM     13  C   UNL     1     104.333  96.952 113.592  1.00  0.00     0.112 A 
ATOM     14  C   UNL     1     107.280  94.450 112.125  1.00  0.00     0.010 A 
ATOM     15  C   UNL     1     105.778  96.361 111.814  1.00  0.00     0.012 A 
ATOM     16  C   UNL     1     104.790  97.197 112.313  1.00  0.00     0.021 A 
ENDBRANCH   6   7
ENDBRANCH   5   6
ENDBRANCH   3   5
BRANCH   2  17
ATOM     17  N   UNL     1     105.394  96.969 118.241  1.00  0.00    -0.181 NA
ATOM     18  C   UNL     1     105.048  98.031 117.571  1.00  0.00     0.141 C 
BRANCH  18  19
ATOM     19  C   UNL     1     104.718  99.293 118.220  1.00  0.00    -0.002 A 
ATOM     20  C   UNL     1     105.727 100.018 118.846  1.00  0.00     0.020 A 
ATOM     21  C   UNL     1     103.424  99.783 118.227  1.00  0.00    -0.040 A 
ATOM     22  C   UNL     1     105.461 101.245 119.490  1.00  0.00     0.001 A 
ATOM     23  C   UNL     1     103.145 100.996 118.860  1.00  0.00     0.030 A 
ATOM     24  C   UNL     1     104.143 101.762 119.507  1.00  0.00     0.045 A 
ATOM     25  C   UNL     1     106.551 101.993 120.146  1.00  0.00    -0.043 C 
ATOM     26  N   UNL     1     103.844 102.975 120.137  1.00  0.00    -0.365 N 
ATOM     27  C   UNL     1     106.255 103.153 120.745  1.00  0.00     0.004 C 
ATOM     28  C   UNL     1     104.884 103.784 120.817  1.00  0.00     0.053 C 
ATOM     29  C   UNL     1     102.311  99.037 117.566  1.00  0.00     0.045 C 
ATOM     30  C   UNL     1     107.959 101.467 120.141  1.00  0.00     0.045 C 
ATOM     31  C   UNL     1     102.463 103.462 120.124  1.00  0.00     0.144 C 
ATOM     32  C   UNL     1     104.986 105.167 120.148  1.00  0.00     0.039 C 
ATOM     33  C   UNL     1     104.532 103.933 122.310  1.00  0.00     0.039 C 
ENDBRANCH  18  19
ENDBRANCH   2  17
TORSDOF 5
ENDMDL
MODEL 10
REMARK VINA RESULT:      -7.6      7.516      9.853
REMARK SMILES CC1=CC(C)(C)N(C)c2cc(C)c(C=NNC(=O)COc3cccc4cccnc34)cc21
REMARK SMILES IDX 18 1 16 2 17 3 19 5 20 6 21 7 30 8 22 9 29 10 25 11 23 12
REMARK SMILES IDX 28 13 24 14 26 15 27 16 15 17 14 18 13 19 31 20 11 21 32 22
REMARK SMILES IDX 10 23 9 24 2 25 7 26 3 27 4 28 12 29 1 30 8 31 5 32 6 33
REMARK H PARENT 16 4
ROOT
ATOM      1  O   UNL     1     100.298  99.939 116.425  1.00  0.00    -0.269 OA
ATOM      2  N   UNL     1     102.342  99.864 117.521  1.00  0.00    -0.244 N 
ATOM      3  C   UNL     1     101.087 100.379 117.258  1.00  0.00     0.277 C 
ATOM      4  H   UNL     1     102.964 100.261 118.220  1.00  0.00     0.193 HD
ENDROOT
BRANCH   3   5
ATOM      5  C   UNL     1     100.782 101.576 118.129  1.00  0.00     0.331 C 
BRANCH   5   6
ATOM      6  O   UNL     1     101.573 101.527 119.298  1.00  0.00    -0.481 OA
BRANCH   6   7
ATOM      7  C   UNL     1     101.986 102.727 119.827  1.00  0.00     0.146 A 
ATOM      8  C   UNL     1     103.304 103.144 119.664  1.00  0.00     0.112 A 
ATOM      9  C   UNL     1     101.053 103.500 120.522  1.00  0.00     0.049 A 
ATOM     10  N   UNL     1     104.178 102.375 118.988  1.00  0.00    -0.252 NA
ATOM     11  C   UNL     1     103.681 104.383 120.224  1.00  0.00     0.004 A 
ATOM     12  C   UNL     1     101.431 104.719 121.071  1.00  0.00     0.005 A 
ATOM     13  C   UNL     1     105.449 102.818 118.853  1.00  0.00     0.112 A 
ATOM     14  C   UNL     1     102.742 105.161 120.923  1.00  0.00     0.010 A 
ATOM     15  C   UNL     1     105.008 104.804 120.061  1.00  0.00     0.012 A 
ATOM     16  C   UNL     1     105.911 104.013 119.365  1.00  0.00     0.021 A 
ENDBRANCH   6   7
ENDBRANCH   5   6
ENDBRANCH   3   5
BRANCH   2  17
ATOM     17  N   UNL     1     102.765  98.786 116.822  1.00  0.00    -0.181 NA
ATOM     18  C   UNL     1     103.768  98.152 117.359  1.00  0.00     0.141 C 
BRANCH  18  19
ATOM     19  C   UNL     1     104.361  96.968 116.753  1.00  0.00    -0.002 A 
ATOM     20  C   UNL     1     104.898  97.058 115.473  1.00  0.00     0.020 A 
ATOM     21  C   UNL     1     104.401  95.757 117.423  1.00  0.00    -0.040 A 
ATOM     22  C   UNL     1     105.484  95.941 114.840  1.00  0.00     0.001 A 
ATOM     23  C   UNL     1     104.977  94.644 116.810  1.00  0.00     0.030 A 
ATOM     24  C   UNL     1     105.532  94.695 115.510  1.00  0.00     0.045 A 
ATOM     25  C   UNL     1     106.046  96.065 113.481  1.00  0.00    -0.043 C 
ATOM     26  N   UNL     1     106.105  93.567 114.911  1.00  0.00    -0.365 N 
ATOM     27  C   UNL     1     106.592  94.981 112.917  1.00  0.00     0.004 C 
ATOM     28  C   UNL     1     106.690  93.612 113.550  1.00  0.00     0.053 C 
ATOM     29  C   UNL     1     103.836  95.617 118.800  1.00  0.00     0.045 C 
ATOM     30  C   UNL     1     106.008  97.376 112.747  1.00  0.00     0.045 C 
ATOM     31  C   UNL     1     106.128  92.303 115.651  1.00  0.00     0.144 C 
ATOM     32  C   UNL     1     108.186  93.250 113.615  1.00  0.00     0.039 C 
ATOM     33  C   UNL     1     105.938  92.633 112.629  1.00  0.00     0.039 C 
ENDBRANCH  18  19
ENDBRANCH   2  17
TORSDOF 5
ENDMDL
MODEL 11
REMARK VINA RESULT:      -7.5      5.980      8.637
REMARK SMILES CC1=CC(C)(C)N(C)c2cc(C)c(C=NNC(=O)COc3cccc4cccnc34)cc21
REMARK SMILES IDX 18 1 16 2 17 3 19 5 20 6 21 7 30 8 22 9 29 10 25 11 23 12
REMARK SMILES IDX 28 13 24 14 26 15 27 16 15 17 14 18 13 19 31 20 11 21 32 22
REMARK SMILES IDX 10 23 9 24 2 25 7 26 3 27 4 28 12 29 1 30 8 31 5 32 6 33
REMARK H PARENT 16 4
ROOT
ATOM      1  O   UNL     1     103.151  98.125 120.776  1.00  0.00    -0.269 OA
ATOM      2  N   UNL     1     105.051  96.832 121.104  1.00  0.00    -0.244 N 
ATOM      3  C   UNL     1     103.930  97.529 121.516  1.00  0.00     0.277 C 
ATOM      4  H   UNL     1     105.670  96.354 121.752  1.00  0.00     0.193 HD
ENDROOT
BRANCH   3   5
ATOM      5  C   UNL     1     103.763  97.478 123.017  1.00  0.00     0.331 C 
BRANCH   5   6
ATOM      6  O   UNL     1     103.944  96.152 123.470  1.00  0.00    -0.481 OA
BRANCH   6   7
ATOM      7  C   UNL     1     102.811  95.406 123.694  1.00  0.00     0.146 A 
ATOM      8  C   UNL     1     102.436  94.418 122.788  1.00  0.00     0.112 A 
ATOM      9  C   UNL     1     102.062  95.668 124.844  1.00  0.00     0.049 A 
ATOM     10  N   UNL     1     103.180  94.190 121.690  1.00  0.00    -0.252 NA
ATOM     11  C   UNL     1     101.267  93.677 123.062  1.00  0.00     0.004 A 
ATOM     12  C   UNL     1     100.912  94.935 125.107  1.00  0.00     0.005 A 
ATOM     13  C   UNL     1     102.780  93.221 120.835  1.00  0.00     0.112 A 
ATOM     14  C   UNL     1     100.514  93.941 124.219  1.00  0.00     0.010 A 
ATOM     15  C   UNL     1     100.888  92.682 122.150  1.00  0.00     0.012 A 
ATOM     16  C   UNL     1     101.653  92.446 121.017  1.00  0.00     0.021 A 
ENDBRANCH   6   7
ENDBRANCH   5   6
ENDBRANCH   3   5
BRANCH   2  17
ATOM     17  N   UNL     1     105.339  96.783 119.783  1.00  0.00    -0.181 NA
ATOM     18  C   UNL     1     105.334  95.584 119.273  1.00  0.00     0.141 C 
BRANCH  18  19
ATOM     19  C   UNL     1     105.621  95.330 117.868  1.00  0.00    -0.002 A 
ATOM     20  C   UNL     1     104.847  95.952 116.894  1.00  0.00     0.020 A 
ATOM     21  C   UNL     1     106.645  94.482 117.483  1.00  0.00    -0.040 A 
ATOM     22  C   UNL     1     105.082  95.738 115.519  1.00  0.00     0.001 A 
ATOM     23  C   UNL     1     106.890  94.260 116.127  1.00  0.00     0.030 A 
ATOM     24  C   UNL     1     106.124  94.874 115.107  1.00  0.00     0.045 A 
ATOM     25  C   UNL     1     104.244  96.411 114.507  1.00  0.00    -0.043 C 
ATOM     26  N   UNL     1     106.384  94.639 113.752  1.00  0.00    -0.365 N 
ATOM     27  C   UNL     1     104.502  96.180 113.214  1.00  0.00     0.004 C 
ATOM     28  C   UNL     1     105.588  95.278 112.678  1.00  0.00     0.053 C 
ATOM     29  C   UNL     1     107.501  93.793 118.497  1.00  0.00     0.045 C 
ATOM     30  C   UNL     1     103.131  97.334 114.917  1.00  0.00     0.045 C 
ATOM     31  C   UNL     1     107.476  93.735 113.384  1.00  0.00     0.144 C 
ATOM     32  C   UNL     1     106.506  96.148 111.798  1.00  0.00     0.039 C 
ATOM     33  C   UNL     1     104.898  94.194 111.828  1.00  0.00     0.039 C 
ENDBRANCH  18  19
ENDBRANCH   2  17
TORSDOF 5
ENDMDL
MODEL 12
REMARK VINA RESULT:      -7.5      7.240      8.824
REMARK SMILES CC1=CC(C)(C)N(C)c2cc(C)c(C=NNC(=O)COc3cccc4cccnc34)cc21
REMARK SMILES IDX 18 1 16 2 17 3 19 5 20 6 21 7 30 8 22 9 29 10 25 11 23 12
REMARK SMILES IDX 28 13 24 14 26 15 27 16 15 17 14 18 13 19 31 20 11 21 32 22
REMARK SMILES IDX 10 23 9 24 2 25 7 26 3 27 4 28 12 29 1 30 8 31 5 32 6 33
REMARK H PARENT 16 4
ROOT
ATOM      1  O   UNL     1     116.332  99.331 123.031  1.00  0.00    -0.269 OA
ATOM      2  N   UNL     1     115.506  98.889 120.907  1.00  0.00    -0.244 N 
ATOM      3  C   UNL     1     116.471  98.878 121.897  1.00  0.00     0.277 C 
ATOM      4  H   UNL     1     115.664  98.505 119.980  1.00  0.00     0.193 HD
ENDROOT
BRANCH   3   5
ATOM      5  C   UNL     1     117.752  98.233 121.419  1.00  0.00     0.331 C 
BRANCH   5   6
ATOM      6  O   UNL     1     117.978  97.038 122.138  1.00  0.00    -0.481 OA
BRANCH   6   7
ATOM      7  C   UNL     1     117.281  95.923 121.737  1.00  0.00     0.146 A 
ATOM      8  C   UNL     1     116.291  95.386 122.555  1.00  0.00     0.112 A 
ATOM      9  C   UNL     1     117.594  95.356 120.498  1.00  0.00     0.049 A 
ATOM     10  N   UNL     1     116.014  95.958 123.743  1.00  0.00    -0.252 NA
ATOM     11  C   UNL     1     115.602  94.243 122.100  1.00  0.00     0.004 A 
ATOM     12  C   UNL     1     116.912  94.230 120.057  1.00  0.00     0.005 A 
ATOM     13  C   UNL     1     115.045  95.404 124.508  1.00  0.00     0.112 A 
ATOM     14  C   UNL     1     115.917  93.673 120.855  1.00  0.00     0.010 A 
ATOM     15  C   UNL     1     114.606  93.701 122.925  1.00  0.00     0.012 A 
ATOM     16  C   UNL     1     114.318  94.287 124.149  1.00  0.00     0.021 A 
ENDBRANCH   6   7
ENDBRANCH   5   6
ENDBRANCH   3   5
BRANCH   2  17
ATOM     17  N   UNL     1     114.298  99.435 121.179  1.00  0.00    -0.181 NA
ATOM     18  C   UNL     1     113.664  99.893 120.138  1.00  0.00     0.141 C 
BRANCH  18  19
ATOM     19  C   UNL     1     112.351 100.516 120.231  1.00  0.00    -0.002 A 
ATOM     20  C   UNL     1     111.290  99.787 120.760  1.00  0.00     0.020 A 
ATOM     21  C   UNL     1     112.137 101.815 119.805  1.00  0.00    -0.040 A 
ATOM     22  C   UNL     1     109.998 100.342 120.871  1.00  0.00     0.001 A 
ATOM     23  C   UNL     1     110.864 102.378 119.908  1.00  0.00     0.030 A 
ATOM     24  C   UNL     1     109.761 101.669 120.439  1.00  0.00     0.045 A 
ATOM     25  C   UNL     1     108.892  99.546 121.436  1.00  0.00    -0.043 C 
ATOM     26  N   UNL     1     108.491 102.251 120.535  1.00  0.00    -0.365 N 
ATOM     27  C   UNL     1     107.681 100.111 121.523  1.00  0.00     0.004 C 
ATOM     28  C   UNL     1     107.331 101.516 121.090  1.00  0.00     0.053 C 
ATOM     29  C   UNL     1     113.248 102.633 119.231  1.00  0.00     0.045 C 
ATOM     30  C   UNL     1     109.116  98.135 121.902  1.00  0.00     0.045 C 
ATOM     31  C   UNL     1     108.304 103.628 120.073  1.00  0.00     0.144 C 
ATOM     32  C   UNL     1     106.796 102.252 122.333  1.00  0.00     0.039 C 
ATOM     33  C   UNL     1     106.230 101.397 120.019  1.00  0.00     0.039 C 
ENDBRANCH  18  19
ENDBRANCH   2  17
TORSDOF 5
ENDMDL
MODEL 13
REMARK VINA RESULT:      -7.5      2.794      3.733
REMARK SMILES CC1=CC(C)(C)N(C)c2cc(C)c(C=NNC(=O)COc3cccc4cccnc34)cc21
REMARK SMILES IDX 18 1 16 2 17 3 19 5 20 6 21 7 30 8 22 9 29 10 25 11 23 12
REMARK SMILES IDX 28 13 24 14 26 15 27 16 15 17 14 18 13 19 31 20 11 21 32 22
REMARK SMILES IDX 10 23 9 24 2 25 7 26 3 27 4 28 12 29 1 30 8 31 5 32 6 33
REMARK H PARENT 16 4
ROOT
ATOM      1  O   UNL     1     111.131  94.581 119.164  1.00  0.00    -0.269 OA
ATOM      2  N   UNL     1     109.065  94.966 120.151  1.00  0.00    -0.244 N 
ATOM      3  C   UNL     1     110.439  95.081 120.049  1.00  0.00     0.277 C 
ATOM      4  H   UNL     1     108.531  95.395 120.901  1.00  0.00     0.193 HD
ENDROOT
BRANCH   3   5
ATOM      5  C   UNL     1     111.014  95.910 121.174  1.00  0.00     0.331 C 
BRANCH   5   6
ATOM      6  O   UNL     1     110.353  97.157 121.232  1.00  0.00    -0.481 OA
BRANCH   6   7
ATOM      7  C   UNL     1     111.135  98.286 121.170  1.00  0.00     0.146 A 
ATOM      8  C   UNL     1     111.267  99.106 122.286  1.00  0.00     0.112 A 
ATOM      9  C   UNL     1     111.784  98.575 119.967  1.00  0.00     0.049 A 
ATOM     10  N   UNL     1     110.628  98.797 123.430  1.00  0.00    -0.252 NA
ATOM     11  C   UNL     1     112.082 100.252 122.175  1.00  0.00     0.004 A 
ATOM     12  C   UNL     1     112.585  99.706 119.864  1.00  0.00     0.005 A 
ATOM     13  C   UNL     1     110.782  99.622 124.492  1.00  0.00     0.112 A 
ATOM     14  C   UNL     1     112.735 100.543 120.965  1.00  0.00     0.010 A 
ATOM     15  C   UNL     1     112.215 101.079 123.299  1.00  0.00     0.012 A 
ATOM     16  C   UNL     1     111.557 100.764 124.479  1.00  0.00     0.021 A 
ENDBRANCH   6   7
ENDBRANCH   5   6
ENDBRANCH   3   5
BRANCH   2  17
ATOM     17  N   UNL     1     108.399  94.252 119.214  1.00  0.00    -0.181 NA
ATOM     18  C   UNL     1     107.156  94.605 119.048  1.00  0.00     0.141 C 
BRANCH  18  19
ATOM     19  C   UNL     1     106.278  93.954 118.085  1.00  0.00    -0.002 A 
ATOM     20  C   UNL     1     106.720  93.774 116.778  1.00  0.00     0.020 A 
ATOM     21  C   UNL     1     105.017  93.513 118.443  1.00  0.00    -0.040 A 
ATOM     22  C   UNL     1     105.910  93.150 115.806  1.00  0.00     0.001 A 
ATOM     23  C   UNL     1     104.203  92.894 117.493  1.00  0.00     0.030 A 
ATOM     24  C   UNL     1     104.616  92.693 116.154  1.00  0.00     0.045 A 
ATOM     25  C   UNL     1     106.404  92.972 114.427  1.00  0.00    -0.043 C 
ATOM     26  N   UNL     1     103.785  92.071 115.215  1.00  0.00    -0.365 N 
ATOM     27  C   UNL     1     105.602  92.375 113.536  1.00  0.00     0.004 C 
ATOM     28  C   UNL     1     104.210  91.856 113.812  1.00  0.00     0.053 C 
ATOM     29  C   UNL     1     104.503  93.686 119.835  1.00  0.00     0.045 C 
ATOM     30  C   UNL     1     107.773  93.447 114.031  1.00  0.00     0.045 C 
ATOM     31  C   UNL     1     102.456  91.618 115.631  1.00  0.00     0.144 C 
ATOM     32  C   UNL     1     104.219  90.348 113.497  1.00  0.00     0.039 C 
ATOM     33  C   UNL     1     103.253  92.599 112.860  1.00  0.00     0.039 C 
ENDBRANCH  18  19
ENDBRANCH   2  17
TORSDOF 5
ENDMDL
MODEL 14
REMARK VINA RESULT:      -7.5      7.457      9.357
REMARK SMILES CC1=CC(C)(C)N(C)c2cc(C)c(C=NNC(=O)COc3cccc4cccnc34)cc21
REMARK SMILES IDX 18 1 16 2 17 3 19 5 20 6 21 7 30 8 22 9 29 10 25 11 23 12
REMARK SMILES IDX 28 13 24 14 26 15 27 16 15 17 14 18 13 19 31 20 11 21 32 22
REMARK SMILES IDX 10 23 9 24 2 25 7 26 3 27 4 28 12 29 1 30 8 31 5 32 6 33
REMARK H PARENT 16 4
ROOT
ATOM      1  O   UNL     1     116.858 101.392 118.441  1.00  0.00    -0.269 OA
ATOM      2  N   UNL     1     116.156  99.552 119.670  1.00  0.00    -0.244 N 
ATOM      3  C   UNL     1     117.102 100.386 119.103  1.00  0.00     0.277 C 
ATOM      4  H   UNL     1     116.402  98.728 120.211  1.00  0.00     0.193 HD
ENDROOT
BRANCH   3   5
ATOM      5  C   UNL     1     118.508  99.911 119.393  1.00  0.00     0.331 C 
BRANCH   5   6
ATOM      6  O   UNL     1     118.730  98.669 118.757  1.00  0.00    -0.481 OA
BRANCH   6   7
ATOM      7  C   UNL     1     119.508  97.752 119.425  1.00  0.00     0.146 A 
ATOM      8  C   UNL     1     118.910  96.748 120.181  1.00  0.00     0.112 A 
ATOM      9  C   UNL     1     120.897  97.862 119.319  1.00  0.00     0.049 A 
ATOM     10  N   UNL     1     117.568  96.671 120.261  1.00  0.00    -0.252 NA
ATOM     11  C   UNL     1     119.749  95.831 120.846  1.00  0.00     0.004 A 
ATOM     12  C   UNL     1     121.717  96.954 119.978  1.00  0.00     0.005 A 
ATOM     13  C   UNL     1     117.027  95.680 121.006  1.00  0.00     0.112 A 
ATOM     14  C   UNL     1     121.146  95.940 120.740  1.00  0.00     0.010 A 
ATOM     15  C   UNL     1     119.147  94.819 121.608  1.00  0.00     0.012 A 
ATOM     16  C   UNL     1     117.765  94.737 121.693  1.00  0.00     0.021 A 
ENDBRANCH   6   7
ENDBRANCH   5   6
ENDBRANCH   3   5
BRANCH   2  17
ATOM     17  N   UNL     1     114.846  99.844 119.501  1.00  0.00    -0.181 NA
ATOM     18  C   UNL     1     114.312 100.520 120.478  1.00  0.00     0.141 C 
BRANCH  18  19
ATOM     19  C   UNL     1     112.913 100.926 120.478  1.00  0.00    -0.002 A 
ATOM     20  C   UNL     1     111.946 100.029 120.921  1.00  0.00     0.020 A 
ATOM     21  C   UNL     1     112.527 102.183 120.044  1.00  0.00    -0.040 A 
ATOM     22  C   UNL     1     110.577 100.372 120.940  1.00  0.00     0.001 A 
ATOM     23  C   UNL     1     111.177 102.536 120.057  1.00  0.00     0.030 A 
ATOM     24  C   UNL     1     110.164 101.652 120.500  1.00  0.00     0.045 A 
ATOM     25  C   UNL     1     109.574  99.400 121.415  1.00  0.00    -0.043 C 
ATOM     26  N   UNL     1     108.815 102.024 120.504  1.00  0.00    -0.365 N 
ATOM     27  C   UNL     1     108.286  99.766 121.416  1.00  0.00     0.004 C 
ATOM     28  C   UNL     1     107.749 101.105 120.967  1.00  0.00     0.053 C 
ATOM     29  C   UNL     1     113.533 103.176 119.560  1.00  0.00     0.045 C 
ATOM     30  C   UNL     1     109.985  98.035 121.888  1.00  0.00     0.045 C 
ATOM     31  C   UNL     1     108.445 103.362 120.038  1.00  0.00     0.144 C 
ATOM     32  C   UNL     1     107.015 101.725 122.171  1.00  0.00     0.039 C 
ATOM     33  C   UNL     1     106.761 100.833 119.816  1.00  0.00     0.039 C 
ENDBRANCH  18  19
ENDBRANCH   2  17
TORSDOF 5
ENDMDL
MODEL 15
REMARK VINA RESULT:      -7.4      7.601      9.514
REMARK SMILES CC1=CC(C)(C)N(C)c2cc(C)c(C=NNC(=O)COc3cccc4cccnc34)cc21
REMARK SMILES IDX 18 1 16 2 17 3 19 5 20 6 21 7 30 8 22 9 29 10 25 11 23 12
REMARK SMILES IDX 28 13 24 14 26 15 27 16 15 17 14 18 13 19 31 20 11 21 32 22
REMARK SMILES IDX 10 23 9 24 2 25 7 26 3 27 4 28 12 29 1 30 8 31 5 32 6 33
REMARK H PARENT 16 4
ROOT
ATOM      1  O   UNL     1     116.642  98.775 117.633  1.00  0.00    -0.269 OA
ATOM      2  N   UNL     1     116.503  99.991 119.605  1.00  0.00    -0.244 N 
ATOM      3  C   UNL     1     117.159  99.244 118.644  1.00  0.00     0.277 C 
ATOM      4  H   UNL     1     116.969 100.360 120.428  1.00  0.00     0.193 HD
ENDROOT
BRANCH   3   5
ATOM      5  C   UNL     1     118.620  99.061 118.983  1.00  0.00     0.331 C 
BRANCH   5   6
ATOM      6  O   UNL     1     119.040  97.770 118.593  1.00  0.00    -0.481 OA
BRANCH   6   7
ATOM      7  C   UNL     1     119.016  96.786 119.553  1.00  0.00     0.146 A 
ATOM      8  C   UNL     1     120.149  96.532 120.321  1.00  0.00     0.112 A 
ATOM      9  C   UNL     1     117.834  96.062 119.727  1.00  0.00     0.049 A 
ATOM     10  N   UNL     1     121.272  97.249 120.127  1.00  0.00    -0.252 NA
ATOM     11  C   UNL     1     120.075  95.513 121.294  1.00  0.00     0.004 A 
ATOM     12  C   UNL     1     117.769  95.060 120.688  1.00  0.00     0.005 A 
ATOM     13  C   UNL     1     122.350  96.970 120.894  1.00  0.00     0.112 A 
ATOM     14  C   UNL     1     118.886  94.785 121.470  1.00  0.00     0.010 A 
ATOM     15  C   UNL     1     121.216  95.256 122.068  1.00  0.00     0.012 A 
ATOM     16  C   UNL     1     122.374  95.993 121.869  1.00  0.00     0.021 A 
ENDBRANCH   6   7
ENDBRANCH   5   6
ENDBRANCH   3   5
BRANCH   2  17
ATOM     17  N   UNL     1     115.183 100.244 119.445  1.00  0.00    -0.181 NA
ATOM     18  C   UNL     1     114.629 100.874 120.442  1.00  0.00     0.141 C 
BRANCH  18  19
ATOM     19  C   UNL     1     113.218 101.235 120.453  1.00  0.00    -0.002 A 
ATOM     20  C   UNL     1     112.280 100.291 120.862  1.00  0.00     0.020 A 
ATOM     21  C   UNL     1     112.791 102.492 120.066  1.00  0.00    -0.040 A 
ATOM     22  C   UNL     1     110.901 100.587 120.891  1.00  0.00     0.001 A 
ATOM     23  C   UNL     1     111.430 102.801 120.089  1.00  0.00     0.030 A 
ATOM     24  C   UNL     1     110.447 101.869 120.498  1.00  0.00     0.045 A 
ATOM     25  C   UNL     1     109.929  99.567 121.329  1.00  0.00    -0.043 C 
ATOM     26  N   UNL     1     109.086 102.197 120.514  1.00  0.00    -0.365 N 
ATOM     27  C   UNL     1     108.630  99.891 121.341  1.00  0.00     0.004 C 
ATOM     28  C   UNL     1     108.050 101.227 120.940  1.00  0.00     0.053 C 
ATOM     29  C   UNL     1     113.764 103.536 119.620  1.00  0.00     0.045 C 
ATOM     30  C   UNL     1     110.385  98.199 121.752  1.00  0.00     0.045 C 
ATOM     31  C   UNL     1     108.673 103.538 120.096  1.00  0.00     0.144 C 
ATOM     32  C   UNL     1     107.296 101.778 122.165  1.00  0.00     0.039 C 
ATOM     33  C   UNL     1     107.073 100.966 119.779  1.00  0.00     0.039 C 
ENDBRANCH  18  19
ENDBRANCH   2  17
TORSDOF 5
ENDMDL
