MODEL 1
REMARK VINA RESULT:      -8.5      0.000      0.000
REMARK SMILES Cc1[nH]nc2nc(-c3ccc(O)cc3F)c(C#N)c(-c3ccc(N4CC[C@@H](O)C4)o3)c12
REMARK SMILES IDX 6 1 3 2 4 3 18 4 19 5 31 6 16 7 5 8 2 9 7 10 1 11 17 12 8 14
REMARK SMILES IDX 14 15 13 16 9 17 11 18 10 19 15 20 12 21 20 23 30 24 21 25
REMARK SMILES IDX 23 26 22 27 24 28 29 29 25 30 27 31 26 32 28 33
REMARK H PARENT 3 13 12 22 28 34
ROOT
ATOM      1  N   UNL     1     118.111 102.748 120.675  1.00  0.00    -0.225 NA
ATOM      2  N   UNL     1     119.136 101.303 123.637  1.00  0.00    -0.280 N 
ATOM      3  N   UNL     1     118.819 102.435 122.973  1.00  0.00    -0.155 NA
ATOM      4  N   UNL     1     117.457  99.390 117.207  1.00  0.00    -0.192 NA
ATOM      5  C   UNL     1     118.398  99.777 120.552  1.00  0.00     0.050 A 
ATOM      6  C   UNL     1     118.634 100.584 121.654  1.00  0.00     0.054 A 
ATOM      7  C   UNL     1     117.994 100.559 119.464  1.00  0.00     0.090 A 
ATOM      8  C   UNL     1     118.506 102.004 121.747  1.00  0.00     0.182 A 
ATOM      9  C   UNL     1     119.041 100.160 122.889  1.00  0.00     0.042 A 
ATOM     10  C   UNL     1     117.873 101.965 119.574  1.00  0.00     0.094 A 
ATOM     11  C   UNL     1     119.357  98.847 123.479  1.00  0.00     0.067 C 
ATOM     12  C   UNL     1     117.697  99.912 118.215  1.00  0.00     0.102 C 
ATOM     13  H   UNL     1     119.413 101.385 124.607  1.00  0.00     0.190 HD
ENDROOT
BRANCH  10  14
ATOM     14  C   UNL     1     117.452 102.764 118.436  1.00  0.00     0.038 A 
ATOM     15  C   UNL     1     116.095 102.989 118.200  1.00  0.00     0.136 A 
ATOM     16  C   UNL     1     115.696 103.755 117.105  1.00  0.00     0.086 A 
ATOM     17  C   UNL     1     118.408 103.307 117.579  1.00  0.00     0.017 A 
ATOM     18  C   UNL     1     116.653 104.299 116.248  1.00  0.00     0.118 A 
ATOM     19  C   UNL     1     118.009 104.074 116.484  1.00  0.00     0.047 A 
ATOM     20  F   UNL     1     115.164 102.474 119.014  1.00  0.00    -0.206 F 
BRANCH  18  21
ATOM     21  O   UNL     1     116.263 105.048 115.180  1.00  0.00    -0.508 OA
ATOM     22  H   UNL     1     115.598 105.693 115.474  1.00  0.00     0.293 HD
ENDBRANCH  18  21
ENDBRANCH  10  14
BRANCH   5  23
ATOM     23  C   UNL     1     118.553  98.350 120.556  1.00  0.00     0.139 A 
ATOM     24  O   UNL     1     117.488  97.649 121.026  1.00  0.00    -0.440 OA
ATOM     25  C   UNL     1     119.565  97.497 120.180  1.00  0.00     0.053 A 
ATOM     26  C   UNL     1     117.824  96.334 120.950  1.00  0.00     0.196 A 
ATOM     27  C   UNL     1     119.091  96.188 120.437  1.00  0.00     0.070 A 
BRANCH  26  28
ATOM     28  N   UNL     1     116.893  95.411 121.376  1.00  0.00    -0.340 N 
ATOM     29  C   UNL     1     116.679  94.109 120.743  1.00  0.00     0.151 C 
ATOM     30  C   UNL     1     115.989  95.622 122.503  1.00  0.00     0.122 C 
ATOM     31  C   UNL     1     115.386  93.599 121.380  1.00  0.00     0.135 C 
ATOM     32  C   UNL     1     115.393  94.237 122.760  1.00  0.00     0.055 C 
BRANCH  31  33
ATOM     33  O   UNL     1     114.275  94.072 120.625  1.00  0.00    -0.391 OA
ATOM     34  H   UNL     1     113.605  94.384 121.257  1.00  0.00     0.211 HD
ENDBRANCH  31  33
ENDBRANCH  26  28
ENDBRANCH   5  23
TORSDOF 5
ENDMDL
MODEL 2
REMARK VINA RESULT:      -8.2      2.533      7.946
REMARK SMILES Cc1[nH]nc2nc(-c3ccc(O)cc3F)c(C#N)c(-c3ccc(N4CC[C@@H](O)C4)o3)c12
REMARK SMILES IDX 6 1 3 2 4 3 18 4 19 5 31 6 16 7 5 8 2 9 7 10 1 11 17 12 8 14
REMARK SMILES IDX 14 15 13 16 9 17 11 18 10 19 15 20 12 21 20 23 30 24 21 25
REMARK SMILES IDX 23 26 22 27 24 28 29 29 25 30 27 31 26 32 28 33
REMARK H PARENT 3 13 12 22 28 34
ROOT
ATOM      1  N   UNL     1     118.825  95.704 120.847  1.00  0.00    -0.225 NA
ATOM      2  N   UNL     1     121.481  97.484 119.549  1.00  0.00    -0.280 N 
ATOM      3  N   UNL     1     120.975  96.278 119.883  1.00  0.00    -0.155 NA
ATOM      4  N   UNL     1     115.160  98.661 122.095  1.00  0.00    -0.192 NA
ATOM      5  C   UNL     1     118.383  98.657 120.739  1.00  0.00     0.050 A 
ATOM      6  C   UNL     1     119.519  97.976 120.328  1.00  0.00     0.054 A 
ATOM      7  C   UNL     1     117.435  97.752 121.230  1.00  0.00     0.090 A 
ATOM      8  C   UNL     1     119.762  96.569 120.365  1.00  0.00     0.182 A 
ATOM      9  C   UNL     1     120.645  98.540 119.796  1.00  0.00     0.042 A 
ATOM     10  C   UNL     1     117.693  96.360 121.259  1.00  0.00     0.094 A 
ATOM     11  C   UNL     1     121.063  99.918 119.483  1.00  0.00     0.067 C 
ATOM     12  C   UNL     1     116.176  98.256 121.709  1.00  0.00     0.102 C 
ATOM     13  H   UNL     1     122.413  97.512 119.154  1.00  0.00     0.190 HD
ENDROOT
BRANCH  10  14
ATOM     14  C   UNL     1     116.698  95.433 121.770  1.00  0.00     0.038 A 
ATOM     15  C   UNL     1     116.193  94.423 120.951  1.00  0.00     0.136 A 
ATOM     16  C   UNL     1     115.238  93.536 121.446  1.00  0.00     0.086 A 
ATOM     17  C   UNL     1     116.248  95.555 123.085  1.00  0.00     0.017 A 
ATOM     18  C   UNL     1     114.788  93.658 122.761  1.00  0.00     0.118 A 
ATOM     19  C   UNL     1     115.293  94.667 123.580  1.00  0.00     0.047 A 
ATOM     20  F   UNL     1     116.616  94.292 119.685  1.00  0.00    -0.206 F 
BRANCH  18  21
ATOM     21  O   UNL     1     113.856  92.792 123.245  1.00  0.00    -0.508 OA
ATOM     22  H   UNL     1     113.010  93.260 123.340  1.00  0.00     0.293 HD
ENDBRANCH  18  21
ENDBRANCH  10  14
BRANCH   5  23
ATOM     23  C   UNL     1     118.230 100.082 120.661  1.00  0.00     0.139 A 
ATOM     24  O   UNL     1     117.706 100.548 119.497  1.00  0.00    -0.440 OA
ATOM     25  C   UNL     1     118.500 101.122 121.521  1.00  0.00     0.053 A 
ATOM     26  C   UNL     1     117.641 101.901 119.614  1.00  0.00     0.196 A 
ATOM     27  C   UNL     1     118.117 102.303 120.841  1.00  0.00     0.070 A 
BRANCH  26  28
ATOM     28  N   UNL     1     117.137 102.611 118.546  1.00  0.00    -0.340 N 
ATOM     29  C   UNL     1     116.293 103.801 118.677  1.00  0.00     0.151 C 
ATOM     30  C   UNL     1     117.365 102.259 117.148  1.00  0.00     0.122 C 
ATOM     31  C   UNL     1     115.772 104.039 117.259  1.00  0.00     0.135 C 
ATOM     32  C   UNL     1     116.880 103.486 116.376  1.00  0.00     0.055 C 
BRANCH  31  33
ATOM     33  O   UNL     1     114.574 103.292 117.070  1.00  0.00    -0.391 OA
ATOM     34  H   UNL     1     113.883 103.916 116.790  1.00  0.00     0.211 HD
ENDBRANCH  31  33
ENDBRANCH  26  28
ENDBRANCH   5  23
TORSDOF 5
ENDMDL
MODEL 3
REMARK VINA RESULT:      -8.0      2.178      3.381
REMARK SMILES Cc1[nH]nc2nc(-c3ccc(O)cc3F)c(C#N)c(-c3ccc(N4CC[C@@H](O)C4)o3)c12
REMARK SMILES IDX 6 1 3 2 4 3 18 4 19 5 31 6 16 7 5 8 2 9 7 10 1 11 17 12 8 14
REMARK SMILES IDX 14 15 13 16 9 17 11 18 10 19 15 20 12 21 20 23 30 24 21 25
REMARK SMILES IDX 23 26 22 27 24 28 29 29 25 30 27 31 26 32 28 33
REMARK H PARENT 3 13 12 22 28 34
ROOT
ATOM      1  N   UNL     1     117.908 103.286 120.611  1.00  0.00    -0.225 NA
ATOM      2  N   UNL     1     118.977 102.085 123.665  1.00  0.00    -0.280 N 
ATOM      3  N   UNL     1     118.602 103.155 122.931  1.00  0.00    -0.155 NA
ATOM      4  N   UNL     1     117.499  99.692 117.347  1.00  0.00    -0.192 NA
ATOM      5  C   UNL     1     118.372 100.335 120.672  1.00  0.00     0.050 A 
ATOM      6  C   UNL     1     118.544 101.220 121.725  1.00  0.00     0.054 A 
ATOM      7  C   UNL     1     117.937 101.025 119.535  1.00  0.00     0.090 A 
ATOM      8  C   UNL     1     118.331 102.632 121.730  1.00  0.00     0.182 A 
ATOM      9  C   UNL     1     118.960 100.897 122.987  1.00  0.00     0.042 A 
ATOM     10  C   UNL     1     117.731 102.425 119.557  1.00  0.00     0.094 A 
ATOM     11  C   UNL     1     119.345  99.642 123.659  1.00  0.00     0.067 C 
ATOM     12  C   UNL     1     117.694 100.287 118.324  1.00  0.00     0.102 C 
ATOM     13  H   UNL     1     119.235 102.243 124.631  1.00  0.00     0.190 HD
ENDROOT
BRANCH  10  14
ATOM     14  C   UNL     1     117.278 103.127 118.369  1.00  0.00     0.038 A 
ATOM     15  C   UNL     1     115.914 103.263 118.110  1.00  0.00     0.136 A 
ATOM     16  C   UNL     1     115.485 103.937 116.967  1.00  0.00     0.086 A 
ATOM     17  C   UNL     1     118.212 103.667 117.485  1.00  0.00     0.017 A 
ATOM     18  C   UNL     1     116.419 104.477 116.084  1.00  0.00     0.118 A 
ATOM     19  C   UNL     1     117.783 104.341 116.342  1.00  0.00     0.047 A 
ATOM     20  F   UNL     1     115.004 102.751 118.950  1.00  0.00    -0.206 F 
BRANCH  18  21
ATOM     21  O   UNL     1     116.000 105.135 114.969  1.00  0.00    -0.508 OA
ATOM     22  H   UNL     1     115.698 104.484 114.313  1.00  0.00     0.293 HD
ENDBRANCH  18  21
ENDBRANCH  10  14
BRANCH   5  23
ATOM     23  C   UNL     1     118.611  98.923 120.764  1.00  0.00     0.139 A 
ATOM     24  O   UNL     1     119.849  98.515 120.381  1.00  0.00    -0.440 OA
ATOM     25  C   UNL     1     117.850  97.848 121.165  1.00  0.00     0.053 A 
ATOM     26  C   UNL     1     119.880  97.165 120.538  1.00  0.00     0.196 A 
ATOM     27  C   UNL     1     118.675  96.707 121.018  1.00  0.00     0.070 A 
BRANCH  26  28
ATOM     28  N   UNL     1     121.048  96.510 120.210  1.00  0.00    -0.340 N 
ATOM     29  C   UNL     1     121.864  95.759 121.166  1.00  0.00     0.151 C 
ATOM     30  C   UNL     1     121.630  96.496 118.871  1.00  0.00     0.122 C 
ATOM     31  C   UNL     1     123.159  95.479 120.403  1.00  0.00     0.135 C 
ATOM     32  C   UNL     1     122.709  95.417 118.952  1.00  0.00     0.055 C 
BRANCH  31  33
ATOM     33  O   UNL     1     124.058  96.566 120.593  1.00  0.00    -0.391 OA
ATOM     34  H   UNL     1     124.751  96.267 121.206  1.00  0.00     0.211 HD
ENDBRANCH  31  33
ENDBRANCH  26  28
ENDBRANCH   5  23
TORSDOF 5
ENDMDL
MODEL 4
REMARK VINA RESULT:      -7.7      3.916      7.624
REMARK SMILES Cc1[nH]nc2nc(-c3ccc(O)cc3F)c(C#N)c(-c3ccc(N4CC[C@@H](O)C4)o3)c12
REMARK SMILES IDX 6 1 3 2 4 3 18 4 19 5 31 6 16 7 5 8 2 9 7 10 1 11 17 12 8 14
REMARK SMILES IDX 14 15 13 16 9 17 11 18 10 19 15 20 12 21 20 23 30 24 21 25
REMARK SMILES IDX 23 26 22 27 24 28 29 29 25 30 27 31 26 32 28 33
REMARK H PARENT 3 13 12 22 28 34
ROOT
ATOM      1  N   UNL     1     117.182  94.758 121.830  1.00  0.00    -0.225 NA
ATOM      2  N   UNL     1     113.920  94.141 122.772  1.00  0.00    -0.280 N 
ATOM      3  N   UNL     1     115.104  93.631 122.371  1.00  0.00    -0.155 NA
ATOM      4  N   UNL     1     118.171  99.528 121.912  1.00  0.00    -0.192 NA
ATOM      5  C   UNL     1     115.617  97.213 122.500  1.00  0.00     0.050 A 
ATOM      6  C   UNL     1     115.158  95.905 122.535  1.00  0.00     0.054 A 
ATOM      7  C   UNL     1     116.956  97.238 122.096  1.00  0.00     0.090 A 
ATOM      8  C   UNL     1     115.878  94.712 122.223  1.00  0.00     0.182 A 
ATOM      9  C   UNL     1     113.898  95.505 122.886  1.00  0.00     0.042 A 
ATOM     10  C   UNL     1     117.655  96.045 121.790  1.00  0.00     0.094 A 
ATOM     11  C   UNL     1     112.672  96.204 123.314  1.00  0.00     0.067 C 
ATOM     12  C   UNL     1     117.629  98.506 121.995  1.00  0.00     0.102 C 
ATOM     13  H   UNL     1     113.163  93.494 122.949  1.00  0.00     0.190 HD
ENDROOT
BRANCH  10  14
ATOM     14  C   UNL     1     119.046  96.088 121.372  1.00  0.00     0.038 A 
ATOM     15  C   UNL     1     119.371  96.332 120.038  1.00  0.00     0.136 A 
ATOM     16  C   UNL     1     120.708  96.370 119.641  1.00  0.00     0.086 A 
ATOM     17  C   UNL     1     120.058  95.884 122.310  1.00  0.00     0.017 A 
ATOM     18  C   UNL     1     121.719  96.167 120.580  1.00  0.00     0.118 A 
ATOM     19  C   UNL     1     121.394  95.923 121.914  1.00  0.00     0.047 A 
ATOM     20  F   UNL     1     118.410  96.530 119.124  1.00  0.00    -0.206 F 
BRANCH  18  21
ATOM     21  O   UNL     1     123.023  96.205 120.193  1.00  0.00    -0.508 OA
ATOM     22  H   UNL     1     123.203  97.064 119.774  1.00  0.00     0.293 HD
ENDBRANCH  18  21
ENDBRANCH  10  14
BRANCH   5  23
ATOM     23  C   UNL     1     114.814  98.354 122.836  1.00  0.00     0.139 A 
ATOM     24  O   UNL     1     114.237  98.991 121.783  1.00  0.00    -0.440 OA
ATOM     25  C   UNL     1     114.480  98.974 124.018  1.00  0.00     0.053 A 
ATOM     26  C   UNL     1     113.528 100.030 122.298  1.00  0.00     0.196 A 
ATOM     27  C   UNL     1     113.645 100.063 123.668  1.00  0.00     0.070 A 
BRANCH  26  28
ATOM     28  N   UNL     1     112.844 100.837 121.415  1.00  0.00    -0.340 N 
ATOM     29  C   UNL     1     111.835 100.351 120.471  1.00  0.00     0.151 C 
ATOM     30  C   UNL     1     113.050 102.277 121.295  1.00  0.00     0.122 C 
ATOM     31  C   UNL     1     111.593 101.544 119.546  1.00  0.00     0.135 C 
ATOM     32  C   UNL     1     111.877 102.746 120.433  1.00  0.00     0.055 C 
BRANCH  31  33
ATOM     33  O   UNL     1     112.525 101.497 118.470  1.00  0.00    -0.391 OA
ATOM     34  H   UNL     1     112.925 100.611 118.469  1.00  0.00     0.211 HD
ENDBRANCH  31  33
ENDBRANCH  26  28
ENDBRANCH   5  23
TORSDOF 5
ENDMDL
MODEL 5
REMARK VINA RESULT:      -7.6     12.987     15.267
REMARK SMILES Cc1[nH]nc2nc(-c3ccc(O)cc3F)c(C#N)c(-c3ccc(N4CC[C@@H](O)C4)o3)c12
REMARK SMILES IDX 6 1 3 2 4 3 18 4 19 5 31 6 16 7 5 8 2 9 7 10 1 11 17 12 8 14
REMARK SMILES IDX 14 15 13 16 9 17 11 18 10 19 15 20 12 21 20 23 30 24 21 25
REMARK SMILES IDX 23 26 22 27 24 28 29 29 25 30 27 31 26 32 28 33
REMARK H PARENT 3 13 12 22 28 34
ROOT
ATOM      1  N   UNL     1     107.234  94.228 116.070  1.00  0.00    -0.225 NA
ATOM      2  N   UNL     1     107.127  93.797 119.493  1.00  0.00    -0.280 N 
ATOM      3  N   UNL     1     107.888  93.896 118.382  1.00  0.00    -0.155 NA
ATOM      4  N   UNL     1     102.756  94.722 114.214  1.00  0.00    -0.192 NA
ATOM      5  C   UNL     1     104.476  94.237 117.220  1.00  0.00     0.050 A 
ATOM      6  C   UNL     1     105.662  94.080 117.920  1.00  0.00     0.054 A 
ATOM      7  C   UNL     1     104.744  94.397 115.856  1.00  0.00     0.090 A 
ATOM      8  C   UNL     1     106.993  94.072 117.403  1.00  0.00     0.182 A 
ATOM      9  C   UNL     1     105.781  93.901 119.271  1.00  0.00     0.042 A 
ATOM     10  C   UNL     1     106.070  94.386 115.361  1.00  0.00     0.094 A 
ATOM     11  C   UNL     1     104.826  93.812 120.390  1.00  0.00     0.067 C 
ATOM     12  C   UNL     1     103.643  94.577 114.948  1.00  0.00     0.102 C 
ATOM     13  H   UNL     1     107.599  93.656 120.377  1.00  0.00     0.190 HD
ENDROOT
BRANCH  10  14
ATOM     14  C   UNL     1     106.332  94.553 113.942  1.00  0.00     0.038 A 
ATOM     15  C   UNL     1     106.301  95.824 113.367  1.00  0.00     0.136 A 
ATOM     16  C   UNL     1     106.553  95.979 112.004  1.00  0.00     0.086 A 
ATOM     17  C   UNL     1     106.618  93.438 113.154  1.00  0.00     0.017 A 
ATOM     18  C   UNL     1     106.838  94.864 111.216  1.00  0.00     0.118 A 
ATOM     19  C   UNL     1     106.870  93.594 111.790  1.00  0.00     0.047 A 
ATOM     20  F   UNL     1     106.029  96.905 114.111  1.00  0.00    -0.206 F 
BRANCH  18  21
ATOM     21  O   UNL     1     107.084  95.016 109.886  1.00  0.00    -0.508 OA
ATOM     22  H   UNL     1     107.905  94.546 109.662  1.00  0.00     0.293 HD
ENDBRANCH  18  21
ENDBRANCH  10  14
BRANCH   5  23
ATOM     23  C   UNL     1     103.177  94.234 117.832  1.00  0.00     0.139 A 
ATOM     24  O   UNL     1     102.859  93.104 118.517  1.00  0.00    -0.440 OA
ATOM     25  C   UNL     1     102.144  95.141 117.888  1.00  0.00     0.053 A 
ATOM     26  C   UNL     1     101.608  93.292 119.016  1.00  0.00     0.196 A 
ATOM     27  C   UNL     1     101.125  94.528 118.657  1.00  0.00     0.070 A 
BRANCH  26  28
ATOM     28  N   UNL     1     101.057  92.270 119.759  1.00  0.00    -0.340 N 
ATOM     29  C   UNL     1     100.250  92.474 120.963  1.00  0.00     0.151 C 
ATOM     30  C   UNL     1     101.222  90.853 119.449  1.00  0.00     0.122 C 
ATOM     31  C   UNL     1     100.125  91.073 121.563  1.00  0.00     0.135 C 
ATOM     32  C   UNL     1     100.199  90.159 120.350  1.00  0.00     0.055 C 
BRANCH  31  33
ATOM     33  O   UNL     1     101.232  90.835 122.427  1.00  0.00    -0.391 OA
ATOM     34  H   UNL     1     100.876  90.539 123.282  1.00  0.00     0.211 HD
ENDBRANCH  31  33
ENDBRANCH  26  28
ENDBRANCH   5  23
TORSDOF 5
ENDMDL
MODEL 6
REMARK VINA RESULT:      -7.6      4.921      6.267
REMARK SMILES Cc1[nH]nc2nc(-c3ccc(O)cc3F)c(C#N)c(-c3ccc(N4CC[C@@H](O)C4)o3)c12
REMARK SMILES IDX 6 1 3 2 4 3 18 4 19 5 31 6 16 7 5 8 2 9 7 10 1 11 17 12 8 14
REMARK SMILES IDX 14 15 13 16 9 17 11 18 10 19 15 20 12 21 20 23 30 24 21 25
REMARK SMILES IDX 23 26 22 27 24 28 29 29 25 30 27 31 26 32 28 33
REMARK H PARENT 3 13 12 22 28 34
ROOT
ATOM      1  N   UNL     1     119.611  98.531 122.833  1.00  0.00    -0.225 NA
ATOM      2  N   UNL     1     117.286 100.094 124.848  1.00  0.00    -0.280 N 
ATOM      3  N   UNL     1     118.511 100.136 124.280  1.00  0.00    -0.155 NA
ATOM      4  N   UNL     1     117.940  94.255 121.201  1.00  0.00    -0.192 NA
ATOM      5  C   UNL     1     117.071  96.998 123.188  1.00  0.00     0.050 A 
ATOM      6  C   UNL     1     117.376  98.231 123.743  1.00  0.00     0.054 A 
ATOM      7  C   UNL     1     118.143  96.546 122.411  1.00  0.00     0.090 A 
ATOM      8  C   UNL     1     118.577  98.989 123.594  1.00  0.00     0.182 A 
ATOM      9  C   UNL     1     116.562  98.970 124.557  1.00  0.00     0.042 A 
ATOM     10  C   UNL     1     119.327  97.311 122.274  1.00  0.00     0.094 A 
ATOM     11  C   UNL     1     115.207  98.785 125.107  1.00  0.00     0.067 C 
ATOM     12  C   UNL     1     118.030  95.278 121.741  1.00  0.00     0.102 C 
ATOM     13  H   UNL     1     117.009 100.876 125.429  1.00  0.00     0.190 HD
ENDROOT
BRANCH  10  14
ATOM     14  C   UNL     1     120.431  96.827 121.463  1.00  0.00     0.038 A 
ATOM     15  C   UNL     1     120.399  96.970 120.076  1.00  0.00     0.136 A 
ATOM     16  C   UNL     1     121.462  96.504 119.302  1.00  0.00     0.086 A 
ATOM     17  C   UNL     1     121.527  96.220 122.077  1.00  0.00     0.017 A 
ATOM     18  C   UNL     1     122.558  95.897 119.916  1.00  0.00     0.118 A 
ATOM     19  C   UNL     1     122.590  95.754 121.303  1.00  0.00     0.047 A 
ATOM     20  F   UNL     1     119.354  97.552 119.472  1.00  0.00    -0.206 F 
BRANCH  18  21
ATOM     21  O   UNL     1     123.595  95.443 119.161  1.00  0.00    -0.508 OA
ATOM     22  H   UNL     1     123.384  94.550 118.839  1.00  0.00     0.293 HD
ENDBRANCH  18  21
ENDBRANCH  10  14
BRANCH   5  23
ATOM     23  C   UNL     1     115.828  96.311 123.396  1.00  0.00     0.139 A 
ATOM     24  O   UNL     1     114.855  96.579 122.486  1.00  0.00    -0.440 OA
ATOM     25  C   UNL     1     115.378  95.411 124.335  1.00  0.00     0.053 A 
ATOM     26  C   UNL     1     113.771  95.843 122.849  1.00  0.00     0.196 A 
ATOM     27  C   UNL     1     114.042  95.107 123.979  1.00  0.00     0.070 A 
BRANCH  26  28
ATOM     28  N   UNL     1     112.639  95.946 122.069  1.00  0.00    -0.340 N 
ATOM     29  C   UNL     1     111.758  94.821 121.748  1.00  0.00     0.151 C 
ATOM     30  C   UNL     1     112.182  97.187 121.451  1.00  0.00     0.122 C 
ATOM     31  C   UNL     1     110.842  95.373 120.655  1.00  0.00     0.135 C 
ATOM     32  C   UNL     1     110.768  96.858 120.970  1.00  0.00     0.055 C 
BRANCH  31  33
ATOM     33  O   UNL     1     111.454  95.169 119.385  1.00  0.00    -0.391 OA
ATOM     34  H   UNL     1     112.139  95.851 119.279  1.00  0.00     0.211 HD
ENDBRANCH  31  33
ENDBRANCH  26  28
ENDBRANCH   5  23
TORSDOF 5
ENDMDL
MODEL 7
REMARK VINA RESULT:      -7.5      2.666      8.012
REMARK SMILES Cc1[nH]nc2nc(-c3ccc(O)cc3F)c(C#N)c(-c3ccc(N4CC[C@@H](O)C4)o3)c12
REMARK SMILES IDX 6 1 3 2 4 3 18 4 19 5 31 6 16 7 5 8 2 9 7 10 1 11 17 12 8 14
REMARK SMILES IDX 14 15 13 16 9 17 11 18 10 19 15 20 12 21 20 23 30 24 21 25
REMARK SMILES IDX 23 26 22 27 24 28 29 29 25 30 27 31 26 32 28 33
REMARK H PARENT 3 13 12 22 28 34
ROOT
ATOM      1  N   UNL     1     118.399  96.267 121.754  1.00  0.00    -0.225 NA
ATOM      2  N   UNL     1     120.970  97.620 119.892  1.00  0.00    -0.280 N 
ATOM      3  N   UNL     1     120.448  96.524 120.484  1.00  0.00    -0.155 NA
ATOM      4  N   UNL     1     115.051  99.633 122.847  1.00  0.00    -0.192 NA
ATOM      5  C   UNL     1     118.091  99.183 121.180  1.00  0.00     0.050 A 
ATOM      6  C   UNL     1     119.138  98.368 120.777  1.00  0.00     0.054 A 
ATOM      7  C   UNL     1     117.163  98.440 121.918  1.00  0.00     0.090 A 
ATOM      8  C   UNL     1     119.314  96.974 121.033  1.00  0.00     0.182 A 
ATOM      9  C   UNL     1     120.221  98.756 120.039  1.00  0.00     0.042 A 
ATOM     10  C   UNL     1     117.355  97.059 122.162  1.00  0.00     0.094 A 
ATOM     11  C   UNL     1     120.666 100.031 119.447  1.00  0.00     0.067 C 
ATOM     12  C   UNL     1     115.994  99.101 122.432  1.00  0.00     0.102 C 
ATOM     13  H   UNL     1     121.850  97.519 119.403  1.00  0.00     0.190 HD
ENDROOT
BRANCH  10  14
ATOM     14  C   UNL     1     116.381  96.300 122.929  1.00  0.00     0.038 A 
ATOM     15  C   UNL     1     116.348  96.405 124.320  1.00  0.00     0.136 A 
ATOM     16  C   UNL     1     115.412  95.674 125.052  1.00  0.00     0.086 A 
ATOM     17  C   UNL     1     115.479  95.465 122.271  1.00  0.00     0.017 A 
ATOM     18  C   UNL     1     114.509  94.839 124.393  1.00  0.00     0.118 A 
ATOM     19  C   UNL     1     114.543  94.734 123.003  1.00  0.00     0.047 A 
ATOM     20  F   UNL     1     117.208  97.204 124.967  1.00  0.00    -0.206 F 
BRANCH  18  21
ATOM     21  O   UNL     1     113.596  94.127 125.107  1.00  0.00    -0.508 OA
ATOM     22  H   UNL     1     113.470  93.261 124.683  1.00  0.00     0.293 HD
ENDBRANCH  18  21
ENDBRANCH  10  14
BRANCH   5  23
ATOM     23  C   UNL     1     118.000 100.582 120.871  1.00  0.00     0.139 A 
ATOM     24  O   UNL     1     117.451 100.877 119.663  1.00  0.00    -0.440 OA
ATOM     25  C   UNL     1     118.350 101.734 121.537  1.00  0.00     0.053 A 
ATOM     26  C   UNL     1     117.452 102.232 119.556  1.00  0.00     0.196 A 
ATOM     27  C   UNL     1     117.994 102.805 120.683  1.00  0.00     0.070 A 
BRANCH  26  28
ATOM     28  N   UNL     1     116.938 102.782 118.402  1.00  0.00    -0.340 N 
ATOM     29  C   UNL     1     117.380 102.421 117.053  1.00  0.00     0.151 C 
ATOM     30  C   UNL     1     115.898 103.807 118.376  1.00  0.00     0.122 C 
ATOM     31  C   UNL     1     116.736 103.482 116.160  1.00  0.00     0.135 C 
ATOM     32  C   UNL     1     115.468 103.856 116.909  1.00  0.00     0.055 C 
BRANCH  31  33
ATOM     33  O   UNL     1     117.604 104.607 116.070  1.00  0.00    -0.391 OA
ATOM     34  H   UNL     1     117.060 105.405 116.180  1.00  0.00     0.211 HD
ENDBRANCH  31  33
ENDBRANCH  26  28
ENDBRANCH   5  23
TORSDOF 5
ENDMDL
MODEL 8
REMARK VINA RESULT:      -7.3      2.864      8.077
REMARK SMILES Cc1[nH]nc2nc(-c3ccc(O)cc3F)c(C#N)c(-c3ccc(N4CC[C@@H](O)C4)o3)c12
REMARK SMILES IDX 6 1 3 2 4 3 18 4 19 5 31 6 16 7 5 8 2 9 7 10 1 11 17 12 8 14
REMARK SMILES IDX 14 15 13 16 9 17 11 18 10 19 15 20 12 21 20 23 30 24 21 25
REMARK SMILES IDX 23 26 22 27 24 28 29 29 25 30 27 31 26 32 28 33
REMARK H PARENT 3 13 12 22 28 34
ROOT
ATOM      1  N   UNL     1     117.787  96.651 123.298  1.00  0.00    -0.225 NA
ATOM      2  N   UNL     1     119.969  99.319 123.482  1.00  0.00    -0.280 N 
ATOM      3  N   UNL     1     119.790  97.986 123.598  1.00  0.00    -0.155 NA
ATOM      4  N   UNL     1     113.300  98.121 122.098  1.00  0.00    -0.192 NA
ATOM      5  C   UNL     1     116.537  99.299 122.701  1.00  0.00     0.050 A 
ATOM      6  C   UNL     1     117.863  99.068 123.031  1.00  0.00     0.054 A 
ATOM      7  C   UNL     1     115.832  98.090 122.682  1.00  0.00     0.090 A 
ATOM      8  C   UNL     1     118.492  97.818 123.321  1.00  0.00     0.182 A 
ATOM      9  C   UNL     1     118.841 100.017 123.143  1.00  0.00     0.042 A 
ATOM     10  C   UNL     1     116.471  96.861 122.972  1.00  0.00     0.094 A 
ATOM     11  C   UNL     1     118.884 101.482 122.980  1.00  0.00     0.067 C 
ATOM     12  C   UNL     1     114.430  98.107 122.358  1.00  0.00     0.102 C 
ATOM     13  H   UNL     1     120.896  99.688 123.651  1.00  0.00     0.190 HD
ENDROOT
BRANCH  10  14
ATOM     14  C   UNL     1     115.726  95.614 122.947  1.00  0.00     0.038 A 
ATOM     15  C   UNL     1     114.925  95.253 124.031  1.00  0.00     0.136 A 
ATOM     16  C   UNL     1     114.212  94.055 124.003  1.00  0.00     0.086 A 
ATOM     17  C   UNL     1     115.812  94.777 121.835  1.00  0.00     0.017 A 
ATOM     18  C   UNL     1     114.298  93.218 122.891  1.00  0.00     0.118 A 
ATOM     19  C   UNL     1     115.099  93.578 121.807  1.00  0.00     0.047 A 
ATOM     20  F   UNL     1     114.832  96.047 125.107  1.00  0.00    -0.206 F 
BRANCH  18  21
ATOM     21  O   UNL     1     113.602  92.049 122.863  1.00  0.00    -0.508 OA
ATOM     22  H   UNL     1     112.728  92.212 122.471  1.00  0.00     0.293 HD
ENDBRANCH  18  21
ENDBRANCH  10  14
BRANCH   5  23
ATOM     23  C   UNL     1     115.994 100.598 122.423  1.00  0.00     0.139 A 
ATOM     24  O   UNL     1     116.107 101.013 121.134  1.00  0.00    -0.440 OA
ATOM     25  C   UNL     1     115.364 101.554 123.186  1.00  0.00     0.053 A 
ATOM     26  C   UNL     1     115.543 102.249 121.073  1.00  0.00     0.196 A 
ATOM     27  C   UNL     1     115.071 102.626 122.309  1.00  0.00     0.070 A 
BRANCH  26  28
ATOM     28  N   UNL     1     115.535 102.888 119.852  1.00  0.00    -0.340 N 
ATOM     29  C   UNL     1     114.644 103.998 119.513  1.00  0.00     0.151 C 
ATOM     30  C   UNL     1     116.404 102.528 118.735  1.00  0.00     0.122 C 
ATOM     31  C   UNL     1     114.815 104.158 118.001  1.00  0.00     0.135 C 
ATOM     32  C   UNL     1     116.240 103.689 117.754  1.00  0.00     0.055 C 
BRANCH  31  33
ATOM     33  O   UNL     1     113.893 103.302 117.334  1.00  0.00    -0.391 OA
ATOM     34  H   UNL     1     114.353 102.466 117.149  1.00  0.00     0.211 HD
ENDBRANCH  31  33
ENDBRANCH  26  28
ENDBRANCH   5  23
TORSDOF 5
ENDMDL
MODEL 9
REMARK VINA RESULT:      -7.2      2.385      3.158
REMARK SMILES Cc1[nH]nc2nc(-c3ccc(O)cc3F)c(C#N)c(-c3ccc(N4CC[C@@H](O)C4)o3)c12
REMARK SMILES IDX 6 1 3 2 4 3 18 4 19 5 31 6 16 7 5 8 2 9 7 10 1 11 17 12 8 14
REMARK SMILES IDX 14 15 13 16 9 17 11 18 10 19 15 20 12 21 20 23 30 24 21 25
REMARK SMILES IDX 23 26 22 27 24 28 29 29 25 30 27 31 26 32 28 33
REMARK H PARENT 3 13 12 22 28 34
ROOT
ATOM      1  N   UNL     1     117.644 103.875 120.845  1.00  0.00    -0.225 NA
ATOM      2  N   UNL     1     119.142 103.477 123.929  1.00  0.00    -0.280 N 
ATOM      3  N   UNL     1     118.795 104.320 122.933  1.00  0.00    -0.155 NA
ATOM      4  N   UNL     1     115.963  99.633 119.140  1.00  0.00    -0.192 NA
ATOM      5  C   UNL     1     117.628 101.065 121.860  1.00  0.00     0.050 A 
ATOM      6  C   UNL     1     118.166 102.171 122.500  1.00  0.00     0.054 A 
ATOM      7  C   UNL     1     117.074 101.446 120.633  1.00  0.00     0.090 A 
ATOM      8  C   UNL     1     118.190 103.524 122.045  1.00  0.00     0.182 A 
ATOM      9  C   UNL     1     118.787 102.172 123.718  1.00  0.00     0.042 A 
ATOM     10  C   UNL     1     117.107 102.792 120.197  1.00  0.00     0.094 A 
ATOM     11  C   UNL     1     119.101 101.137 124.720  1.00  0.00     0.067 C 
ATOM     12  C   UNL     1     116.459 100.442 119.807  1.00  0.00     0.102 C 
ATOM     13  H   UNL     1     119.626 103.865 124.729  1.00  0.00     0.190 HD
ENDROOT
BRANCH  10  14
ATOM     14  C   UNL     1     116.526 103.172 118.920  1.00  0.00     0.038 A 
ATOM     15  C   UNL     1     117.327 103.249 117.781  1.00  0.00     0.136 A 
ATOM     16  C   UNL     1     116.765 103.615 116.558  1.00  0.00     0.086 A 
ATOM     17  C   UNL     1     115.164 103.459 118.837  1.00  0.00     0.017 A 
ATOM     18  C   UNL     1     115.402 103.902 116.474  1.00  0.00     0.118 A 
ATOM     19  C   UNL     1     114.602 103.825 117.614  1.00  0.00     0.047 A 
ATOM     20  F   UNL     1     118.637 102.976 117.845  1.00  0.00    -0.206 F 
BRANCH  18  21
ATOM     21  O   UNL     1     114.854 104.258 115.281  1.00  0.00    -0.508 OA
ATOM     22  H   UNL     1     114.197 103.590 115.023  1.00  0.00     0.293 HD
ENDBRANCH  18  21
ENDBRANCH  10  14
BRANCH   5  23
ATOM     23  C   UNL     1     117.650  99.736 122.402  1.00  0.00     0.139 A 
ATOM     24  O   UNL     1     118.636  98.930 121.928  1.00  0.00    -0.440 OA
ATOM     25  C   UNL     1     116.878  99.065 123.323  1.00  0.00     0.053 A 
ATOM     26  C   UNL     1     118.492  97.731 122.552  1.00  0.00     0.196 A 
ATOM     27  C   UNL     1     117.425  97.763 123.420  1.00  0.00     0.070 A 
BRANCH  26  28
ATOM     28  N   UNL     1     119.388  96.733 122.234  1.00  0.00    -0.340 N 
ATOM     29  C   UNL     1     120.842  96.882 122.306  1.00  0.00     0.151 C 
ATOM     30  C   UNL     1     119.001  95.405 121.767  1.00  0.00     0.122 C 
ATOM     31  C   UNL     1     121.375  95.636 121.597  1.00  0.00     0.135 C 
ATOM     32  C   UNL     1     120.295  94.596 121.848  1.00  0.00     0.055 C 
BRANCH  31  33
ATOM     33  O   UNL     1     121.485  95.904 120.203  1.00  0.00    -0.391 OA
ATOM     34  H   UNL     1     121.325  96.854 120.075  1.00  0.00     0.211 HD
ENDBRANCH  31  33
ENDBRANCH  26  28
ENDBRANCH   5  23
TORSDOF 5
ENDMDL
MODEL 10
REMARK VINA RESULT:      -7.2     14.176     15.691
REMARK SMILES Cc1[nH]nc2nc(-c3ccc(O)cc3F)c(C#N)c(-c3ccc(N4CC[C@@H](O)C4)o3)c12
REMARK SMILES IDX 6 1 3 2 4 3 18 4 19 5 31 6 16 7 5 8 2 9 7 10 1 11 17 12 8 14
REMARK SMILES IDX 14 15 13 16 9 17 11 18 10 19 15 20 12 21 20 23 30 24 21 25
REMARK SMILES IDX 23 26 22 27 24 28 29 29 25 30 27 31 26 32 28 33
REMARK H PARENT 3 13 12 22 28 34
ROOT
ATOM      1  N   UNL     1     103.161  97.395 114.688  1.00  0.00    -0.225 NA
ATOM      2  N   UNL     1     101.136  98.389 117.301  1.00  0.00    -0.280 N 
ATOM      3  N   UNL     1     101.519  98.583 116.020  1.00  0.00    -0.155 NA
ATOM      4  N   UNL     1     105.971  93.627 115.968  1.00  0.00    -0.192 NA
ATOM      5  C   UNL     1     103.510  95.792 117.186  1.00  0.00     0.050 A 
ATOM      6  C   UNL     1     102.639  96.855 117.001  1.00  0.00     0.054 A 
ATOM      7  C   UNL     1     104.231  95.557 116.010  1.00  0.00     0.090 A 
ATOM      8  C   UNL     1     102.448  97.640 115.824  1.00  0.00     0.182 A 
ATOM      9  C   UNL     1     101.780  97.361 117.937  1.00  0.00     0.042 A 
ATOM     10  C   UNL     1     104.028  96.345 114.852  1.00  0.00     0.094 A 
ATOM     11  C   UNL     1     101.465  97.031 119.339  1.00  0.00     0.067 C 
ATOM     12  C   UNL     1     105.194  94.489 115.987  1.00  0.00     0.102 C 
ATOM     13  H   UNL     1     100.425  99.002 117.679  1.00  0.00     0.190 HD
ENDROOT
BRANCH  10  14
ATOM     14  C   UNL     1     104.785  96.088 113.638  1.00  0.00     0.038 A 
ATOM     15  C   UNL     1     104.404  95.057 112.779  1.00  0.00     0.136 A 
ATOM     16  C   UNL     1     105.134  94.814 111.615  1.00  0.00     0.086 A 
ATOM     17  C   UNL     1     105.894  96.876 113.333  1.00  0.00     0.017 A 
ATOM     18  C   UNL     1     106.243  95.602 111.311  1.00  0.00     0.118 A 
ATOM     19  C   UNL     1     106.624  96.633 112.170  1.00  0.00     0.047 A 
ATOM     20  F   UNL     1     103.340  94.291 113.058  1.00  0.00    -0.206 F 
BRANCH  18  21
ATOM     21  O   UNL     1     106.955  95.365 110.175  1.00  0.00    -0.508 OA
ATOM     22  H   UNL     1     107.848  95.066 110.419  1.00  0.00     0.293 HD
ENDBRANCH  18  21
ENDBRANCH  10  14
BRANCH   5  23
ATOM     23  C   UNL     1     103.631  95.059 118.413  1.00  0.00     0.139 A 
ATOM     24  O   UNL     1     102.631  94.174 118.665  1.00  0.00    -0.440 OA
ATOM     25  C   UNL     1     104.559  95.042 119.430  1.00  0.00     0.053 A 
ATOM     26  C   UNL     1     102.922  93.586 119.856  1.00  0.00     0.196 A 
ATOM     27  C   UNL     1     104.097  94.086 120.366  1.00  0.00     0.070 A 
BRANCH  26  28
ATOM     28  N   UNL     1     102.042  92.639 120.332  1.00  0.00    -0.340 N 
ATOM     29  C   UNL     1     101.163  92.841 121.486  1.00  0.00     0.151 C 
ATOM     30  C   UNL     1     101.885  91.305 119.758  1.00  0.00     0.122 C 
ATOM     31  C   UNL     1     100.616  91.444 121.780  1.00  0.00     0.135 C 
ATOM     32  C   UNL     1     100.615  90.769 120.418  1.00  0.00     0.055 C 
BRANCH  31  33
ATOM     33  O   UNL     1     101.506  90.770 122.662  1.00  0.00    -0.391 OA
ATOM     34  H   UNL     1     101.977  91.448 123.176  1.00  0.00     0.211 HD
ENDBRANCH  31  33
ENDBRANCH  26  28
ENDBRANCH   5  23
TORSDOF 5
ENDMDL
MODEL 11
REMARK VINA RESULT:      -7.0     13.528     16.370
REMARK SMILES Cc1[nH]nc2nc(-c3ccc(O)cc3F)c(C#N)c(-c3ccc(N4CC[C@@H](O)C4)o3)c12
REMARK SMILES IDX 6 1 3 2 4 3 18 4 19 5 31 6 16 7 5 8 2 9 7 10 1 11 17 12 8 14
REMARK SMILES IDX 14 15 13 16 9 17 11 18 10 19 15 20 12 21 20 23 30 24 21 25
REMARK SMILES IDX 23 26 22 27 24 28 29 29 25 30 27 31 26 32 28 33
REMARK H PARENT 3 13 12 22 28 34
ROOT
ATOM      1  N   UNL     1     102.069  92.975 118.990  1.00  0.00    -0.225 NA
ATOM      2  N   UNL     1     101.866  91.065 116.123  1.00  0.00    -0.280 N 
ATOM      3  N   UNL     1     101.327  91.381 117.320  1.00  0.00    -0.155 NA
ATOM      4  N   UNL     1     105.959  95.907 118.885  1.00  0.00    -0.192 NA
ATOM      5  C   UNL     1     104.271  93.470 117.031  1.00  0.00     0.050 A 
ATOM      6  C   UNL     1     103.222  92.574 116.887  1.00  0.00     0.054 A 
ATOM      7  C   UNL     1     104.163  94.137 118.256  1.00  0.00     0.090 A 
ATOM      8  C   UNL     1     102.156  92.314 117.801  1.00  0.00     0.182 A 
ATOM      9  C   UNL     1     103.008  91.754 115.814  1.00  0.00     0.042 A 
ATOM     10  C   UNL     1     103.100  93.867 119.151  1.00  0.00     0.094 A 
ATOM     11  C   UNL     1     103.708  91.513 114.539  1.00  0.00     0.067 C 
ATOM     12  C   UNL     1     105.157  95.117 118.604  1.00  0.00     0.102 C 
ATOM     13  H   UNL     1     101.398  90.361 115.566  1.00  0.00     0.190 HD
ENDROOT
BRANCH  10  14
ATOM     14  C   UNL     1     103.002  94.569 120.419  1.00  0.00     0.038 A 
ATOM     15  C   UNL     1     102.449  95.848 120.472  1.00  0.00     0.136 A 
ATOM     16  C   UNL     1     102.358  96.518 121.693  1.00  0.00     0.086 A 
ATOM     17  C   UNL     1     103.461  93.958 121.586  1.00  0.00     0.017 A 
ATOM     18  C   UNL     1     102.818  95.907 122.859  1.00  0.00     0.118 A 
ATOM     19  C   UNL     1     103.370  94.628 122.806  1.00  0.00     0.047 A 
ATOM     20  F   UNL     1     102.003  96.448 119.360  1.00  0.00    -0.206 F 
BRANCH  18  21
ATOM     21  O   UNL     1     102.728  96.561 124.050  1.00  0.00    -0.508 OA
ATOM     22  H   UNL     1     102.011  96.164 124.574  1.00  0.00     0.293 HD
ENDBRANCH  18  21
ENDBRANCH  10  14
BRANCH   5  23
ATOM     23  C   UNL     1     105.300  93.663 116.050  1.00  0.00     0.139 A 
ATOM     24  O   UNL     1     105.019  94.576 115.083  1.00  0.00    -0.440 OA
ATOM     25  C   UNL     1     106.550  93.121 115.855  1.00  0.00     0.053 A 
ATOM     26  C   UNL     1     106.101  94.616 114.261  1.00  0.00     0.196 A 
ATOM     27  C   UNL     1     107.070  93.740 114.693  1.00  0.00     0.070 A 
BRANCH  26  28
ATOM     28  N   UNL     1     106.056  95.480 113.188  1.00  0.00    -0.340 N 
ATOM     29  C   UNL     1     106.025  96.939 113.309  1.00  0.00     0.151 C 
ATOM     30  C   UNL     1     106.017  95.050 111.793  1.00  0.00     0.122 C 
ATOM     31  C   UNL     1     105.694  97.417 111.895  1.00  0.00     0.135 C 
ATOM     32  C   UNL     1     106.282  96.334 111.005  1.00  0.00     0.055 C 
BRANCH  31  33
ATOM     33  O   UNL     1     104.279  97.468 111.738  1.00  0.00    -0.391 OA
ATOM     34  H   UNL     1     104.041  98.388 111.536  1.00  0.00     0.211 HD
ENDBRANCH  31  33
ENDBRANCH  26  28
ENDBRANCH   5  23
TORSDOF 5
ENDMDL
MODEL 12
REMARK VINA RESULT:      -6.9      3.075      8.028
REMARK SMILES Cc1[nH]nc2nc(-c3ccc(O)cc3F)c(C#N)c(-c3ccc(N4CC[C@@H](O)C4)o3)c12
REMARK SMILES IDX 6 1 3 2 4 3 18 4 19 5 31 6 16 7 5 8 2 9 7 10 1 11 17 12 8 14
REMARK SMILES IDX 14 15 13 16 9 17 11 18 10 19 15 20 12 21 20 23 30 24 21 25
REMARK SMILES IDX 23 26 22 27 24 28 29 29 25 30 27 31 26 32 28 33
REMARK H PARENT 3 13 12 22 28 34
ROOT
ATOM      1  N   UNL     1     118.795  95.618 121.018  1.00  0.00    -0.225 NA
ATOM      2  N   UNL     1     121.473  97.390 119.754  1.00  0.00    -0.280 N 
ATOM      3  N   UNL     1     120.971  96.189 120.113  1.00  0.00    -0.155 NA
ATOM      4  N   UNL     1     115.046  98.563 122.020  1.00  0.00    -0.192 NA
ATOM      5  C   UNL     1     118.317  98.559 120.785  1.00  0.00     0.050 A 
ATOM      6  C   UNL     1     119.477  97.881 120.442  1.00  0.00     0.054 A 
ATOM      7  C   UNL     1     117.364  97.658 121.273  1.00  0.00     0.090 A 
ATOM      8  C   UNL     1     119.737  96.480 120.539  1.00  0.00     0.182 A 
ATOM      9  C   UNL     1     120.615  98.442 119.932  1.00  0.00     0.042 A 
ATOM     10  C   UNL     1     117.639  96.272 121.362  1.00  0.00     0.094 A 
ATOM     11  C   UNL     1     121.025  99.814 119.583  1.00  0.00     0.067 C 
ATOM     12  C   UNL     1     116.081  98.160 121.686  1.00  0.00     0.102 C 
ATOM     13  H   UNL     1     122.419  97.418 119.393  1.00  0.00     0.190 HD
ENDROOT
BRANCH  10  14
ATOM     14  C   UNL     1     116.639  95.349 121.870  1.00  0.00     0.038 A 
ATOM     15  C   UNL     1     116.142  94.333 121.054  1.00  0.00     0.136 A 
ATOM     16  C   UNL     1     115.181  93.450 121.546  1.00  0.00     0.086 A 
ATOM     17  C   UNL     1     116.175  95.481 123.179  1.00  0.00     0.017 A 
ATOM     18  C   UNL     1     114.718  93.582 122.855  1.00  0.00     0.118 A 
ATOM     19  C   UNL     1     115.214  94.598 123.671  1.00  0.00     0.047 A 
ATOM     20  F   UNL     1     116.578  94.193 119.794  1.00  0.00    -0.206 F 
BRANCH  18  21
ATOM     21  O   UNL     1     113.781  92.720 123.335  1.00  0.00    -0.508 OA
ATOM     22  H   UNL     1     113.513  92.116 122.622  1.00  0.00     0.293 HD
ENDBRANCH  18  21
ENDBRANCH  10  14
BRANCH   5  23
ATOM     23  C   UNL     1     118.148  99.977 120.649  1.00  0.00     0.139 A 
ATOM     24  O   UNL     1     118.370 100.702 121.777  1.00  0.00    -0.440 OA
ATOM     25  C   UNL     1     117.801 100.803 119.604  1.00  0.00     0.053 A 
ATOM     26  C   UNL     1     118.162 102.005 121.449  1.00  0.00     0.196 A 
ATOM     27  C   UNL     1     117.810 102.120 120.124  1.00  0.00     0.070 A 
BRANCH  26  28
ATOM     28  N   UNL     1     118.329 102.947 122.440  1.00  0.00    -0.340 N 
ATOM     29  C   UNL     1     118.811 102.643 123.789  1.00  0.00     0.151 C 
ATOM     30  C   UNL     1     118.029 104.367 122.278  1.00  0.00     0.122 C 
ATOM     31  C   UNL     1     118.550 103.931 124.571  1.00  0.00     0.135 C 
ATOM     32  C   UNL     1     118.654 105.017 123.513  1.00  0.00     0.055 C 
BRANCH  31  33
ATOM     33  O   UNL     1     117.231 103.892 125.107  1.00  0.00    -0.391 OA
ATOM     34  H   UNL     1     117.024 104.783 125.438  1.00  0.00     0.211 HD
ENDBRANCH  31  33
ENDBRANCH  26  28
ENDBRANCH   5  23
TORSDOF 5
ENDMDL
MODEL 13
REMARK VINA RESULT:      -6.9     13.191     15.406
REMARK SMILES Cc1[nH]nc2nc(-c3ccc(O)cc3F)c(C#N)c(-c3ccc(N4CC[C@@H](O)C4)o3)c12
REMARK SMILES IDX 6 1 3 2 4 3 18 4 19 5 31 6 16 7 5 8 2 9 7 10 1 11 17 12 8 14
REMARK SMILES IDX 14 15 13 16 9 17 11 18 10 19 15 20 12 21 20 23 30 24 21 25
REMARK SMILES IDX 23 26 22 27 24 28 29 29 25 30 27 31 26 32 28 33
REMARK H PARENT 3 13 12 22 28 34
ROOT
ATOM      1  N   UNL     1     107.084  94.100 115.917  1.00  0.00    -0.225 NA
ATOM      2  N   UNL     1     106.848  93.635 119.329  1.00  0.00    -0.280 N 
ATOM      3  N   UNL     1     107.639  93.648 118.234  1.00  0.00    -0.155 NA
ATOM      4  N   UNL     1     102.754  95.220 113.986  1.00  0.00    -0.192 NA
ATOM      5  C   UNL     1     104.329  94.463 117.015  1.00  0.00     0.050 A 
ATOM      6  C   UNL     1     105.468  94.137 117.734  1.00  0.00     0.054 A 
ATOM      7  C   UNL     1     104.645  94.605 115.659  1.00  0.00     0.090 A 
ATOM      8  C   UNL     1     106.797  93.957 117.242  1.00  0.00     0.182 A 
ATOM      9  C   UNL     1     105.533  93.923 119.083  1.00  0.00     0.042 A 
ATOM     10  C   UNL     1     105.968  94.424 115.189  1.00  0.00     0.094 A 
ATOM     11  C   UNL     1     104.551  93.946 120.183  1.00  0.00     0.067 C 
ATOM     12  C   UNL     1     103.598  94.946 114.733  1.00  0.00     0.102 C 
ATOM     13  H   UNL     1     107.278  93.419 120.219  1.00  0.00     0.190 HD
ENDROOT
BRANCH  10  14
ATOM     14  C   UNL     1     106.280  94.576 113.778  1.00  0.00     0.038 A 
ATOM     15  C   UNL     1     106.325  95.846 113.202  1.00  0.00     0.136 A 
ATOM     16  C   UNL     1     106.625  95.986 111.847  1.00  0.00     0.086 A 
ATOM     17  C   UNL     1     106.537  93.447 113.000  1.00  0.00     0.017 A 
ATOM     18  C   UNL     1     106.881  94.858 111.069  1.00  0.00     0.118 A 
ATOM     19  C   UNL     1     106.837  93.588 111.645  1.00  0.00     0.047 A 
ATOM     20  F   UNL     1     106.081  96.940 113.937  1.00  0.00    -0.206 F 
BRANCH  18  21
ATOM     21  O   UNL     1     107.174  94.995 109.747  1.00  0.00    -0.508 OA
ATOM     22  H   UNL     1     107.397  95.924 109.568  1.00  0.00     0.293 HD
ENDBRANCH  18  21
ENDBRANCH  10  14
BRANCH   5  23
ATOM     23  C   UNL     1     103.029  94.624 117.601  1.00  0.00     0.139 A 
ATOM     24  O   UNL     1     102.745  95.874 118.054  1.00  0.00    -0.440 OA
ATOM     25  C   UNL     1     101.966  93.778 117.818  1.00  0.00     0.053 A 
ATOM     26  C   UNL     1     101.487  95.825 118.567  1.00  0.00     0.196 A 
ATOM     27  C   UNL     1     100.965  94.558 118.446  1.00  0.00     0.070 A 
BRANCH  26  28
ATOM     28  N   UNL     1     100.967  96.987 119.096  1.00  0.00    -0.340 N 
ATOM     29  C   UNL     1     100.239  97.990 118.316  1.00  0.00     0.151 C 
ATOM     30  C   UNL     1     101.091  97.375 120.498  1.00  0.00     0.122 C 
ATOM     31  C   UNL     1     100.130  99.184 119.264  1.00  0.00     0.135 C 
ATOM     32  C   UNL     1     100.116  98.543 120.643  1.00  0.00     0.055 C 
BRANCH  31  33
ATOM     33  O   UNL     1     101.284 100.005 119.116  1.00  0.00    -0.391 OA
ATOM     34  H   UNL     1     101.809  99.920 119.929  1.00  0.00     0.211 HD
ENDBRANCH  31  33
ENDBRANCH  26  28
ENDBRANCH   5  23
TORSDOF 5
ENDMDL
MODEL 14
REMARK VINA RESULT:      -6.9     12.495     14.854
REMARK SMILES Cc1[nH]nc2nc(-c3ccc(O)cc3F)c(C#N)c(-c3ccc(N4CC[C@@H](O)C4)o3)c12
REMARK SMILES IDX 6 1 3 2 4 3 18 4 19 5 31 6 16 7 5 8 2 9 7 10 1 11 17 12 8 14
REMARK SMILES IDX 14 15 13 16 9 17 11 18 10 19 15 20 12 21 20 23 30 24 21 25
REMARK SMILES IDX 23 26 22 27 24 28 29 29 25 30 27 31 26 32 28 33
REMARK H PARENT 3 13 12 22 28 34
ROOT
ATOM      1  N   UNL     1     105.800  93.642 117.013  1.00  0.00    -0.225 NA
ATOM      2  N   UNL     1     104.985  94.288 120.304  1.00  0.00    -0.280 N 
ATOM      3  N   UNL     1     105.514  93.424 119.411  1.00  0.00    -0.155 NA
ATOM      4  N   UNL     1     104.589  97.378 114.130  1.00  0.00    -0.192 NA
ATOM      5  C   UNL     1     104.532  96.311 117.459  1.00  0.00     0.050 A 
ATOM      6  C   UNL     1     104.806  95.355 118.425  1.00  0.00     0.054 A 
ATOM      7  C   UNL     1     104.939  95.850 116.202  1.00  0.00     0.090 A 
ATOM      8  C   UNL     1     105.410  94.073 118.247  1.00  0.00     0.182 A 
ATOM      9  C   UNL     1     104.543  95.465 119.763  1.00  0.00     0.042 A 
ATOM     10  C   UNL     1     105.537  94.577 116.044  1.00  0.00     0.094 A 
ATOM     11  C   UNL     1     103.940  96.505 120.616  1.00  0.00     0.067 C 
ATOM     12  C   UNL     1     104.745  96.696 115.055  1.00  0.00     0.102 C 
ATOM     13  H   UNL     1     104.955  94.005 121.275  1.00  0.00     0.190 HD
ENDROOT
BRANCH  10  14
ATOM     14  C   UNL     1     105.955  94.113 114.732  1.00  0.00     0.038 A 
ATOM     15  C   UNL     1     105.007  93.686 113.803  1.00  0.00     0.136 A 
ATOM     16  C   UNL     1     105.414  93.241 112.545  1.00  0.00     0.086 A 
ATOM     17  C   UNL     1     107.311  94.096 114.403  1.00  0.00     0.017 A 
ATOM     18  C   UNL     1     106.769  93.224 112.216  1.00  0.00     0.118 A 
ATOM     19  C   UNL     1     107.718  93.651 113.145  1.00  0.00     0.047 A 
ATOM     20  F   UNL     1     103.700  93.697 114.103  1.00  0.00    -0.206 F 
BRANCH  18  21
ATOM     21  O   UNL     1     107.166  92.790 110.989  1.00  0.00    -0.508 OA
ATOM     22  H   UNL     1     107.339  93.561 110.422  1.00  0.00     0.293 HD
ENDBRANCH  18  21
ENDBRANCH  10  14
BRANCH   5  23
ATOM     23  C   UNL     1     103.920  97.579 117.737  1.00  0.00     0.139 A 
ATOM     24  O   UNL     1     104.779  98.584 118.051  1.00  0.00    -0.440 OA
ATOM     25  C   UNL     1     102.620  98.029 117.760  1.00  0.00     0.053 A 
ATOM     26  C   UNL     1     104.019  99.689 118.277  1.00  0.00     0.196 A 
ATOM     27  C   UNL     1     102.685  99.399 118.111  1.00  0.00     0.070 A 
BRANCH  26  28
ATOM     28  N   UNL     1     104.671 100.854 118.617  1.00  0.00    -0.340 N 
ATOM     29  C   UNL     1     106.020 100.904 119.184  1.00  0.00     0.151 C 
ATOM     30  C   UNL     1     104.094 102.187 118.471  1.00  0.00     0.122 C 
ATOM     31  C   UNL     1     106.172 102.355 119.642  1.00  0.00     0.135 C 
ATOM     32  C   UNL     1     105.282 103.127 118.681  1.00  0.00     0.055 C 
BRANCH  31  33
ATOM     33  O   UNL     1     105.681 102.478 120.973  1.00  0.00    -0.391 OA
ATOM     34  H   UNL     1     104.761 102.166 120.974  1.00  0.00     0.211 HD
ENDBRANCH  31  33
ENDBRANCH  26  28
ENDBRANCH   5  23
TORSDOF 5
ENDMDL
MODEL 15
REMARK VINA RESULT:      -6.8      2.183      2.555
REMARK SMILES Cc1[nH]nc2nc(-c3ccc(O)cc3F)c(C#N)c(-c3ccc(N4CC[C@@H](O)C4)o3)c12
REMARK SMILES IDX 6 1 3 2 4 3 18 4 19 5 31 6 16 7 5 8 2 9 7 10 1 11 17 12 8 14
REMARK SMILES IDX 14 15 13 16 9 17 11 18 10 19 15 20 12 21 20 23 30 24 21 25
REMARK SMILES IDX 23 26 22 27 24 28 29 29 25 30 27 31 26 32 28 33
REMARK H PARENT 3 13 12 22 28 34
ROOT
ATOM      1  N   UNL     1     117.585 103.891 120.736  1.00  0.00    -0.225 NA
ATOM      2  N   UNL     1     119.033 103.534 123.848  1.00  0.00    -0.280 N 
ATOM      3  N   UNL     1     118.641 104.372 122.865  1.00  0.00    -0.155 NA
ATOM      4  N   UNL     1     116.310  99.573 118.876  1.00  0.00    -0.192 NA
ATOM      5  C   UNL     1     117.780 101.062 121.678  1.00  0.00     0.050 A 
ATOM      6  C   UNL     1     118.206 102.191 122.360  1.00  0.00     0.054 A 
ATOM      7  C   UNL     1     117.226 101.429 120.446  1.00  0.00     0.090 A 
ATOM      8  C   UNL     1     118.127 103.554 121.941  1.00  0.00     0.182 A 
ATOM      9  C   UNL     1     118.794 102.210 123.595  1.00  0.00     0.042 A 
ATOM     10  C   UNL     1     117.156 102.786 120.046  1.00  0.00     0.094 A 
ATOM     11  C   UNL     1     119.169 101.177 124.577  1.00  0.00     0.067 C 
ATOM     12  C   UNL     1     116.719 100.401 119.577  1.00  0.00     0.102 C 
ATOM     13  H   UNL     1     119.462 103.938 124.671  1.00  0.00     0.190 HD
ENDROOT
BRANCH  10  14
ATOM     14  C   UNL     1     116.578 103.151 118.764  1.00  0.00     0.038 A 
ATOM     15  C   UNL     1     117.391 103.273 117.637  1.00  0.00     0.136 A 
ATOM     16  C   UNL     1     116.831 103.625 116.409  1.00  0.00     0.086 A 
ATOM     17  C   UNL     1     115.206 103.379 118.663  1.00  0.00     0.017 A 
ATOM     18  C   UNL     1     115.459 103.853 116.308  1.00  0.00     0.118 A 
ATOM     19  C   UNL     1     114.646 103.731 117.435  1.00  0.00     0.047 A 
ATOM     20  F   UNL     1     118.711 103.057 117.718  1.00  0.00    -0.206 F 
BRANCH  18  21
ATOM     21  O   UNL     1     114.912 104.196 115.109  1.00  0.00    -0.508 OA
ATOM     22  H   UNL     1     114.634 105.127 115.144  1.00  0.00     0.293 HD
ENDBRANCH  18  21
ENDBRANCH  10  14
BRANCH   5  23
ATOM     23  C   UNL     1     117.900  99.725 122.185  1.00  0.00     0.139 A 
ATOM     24  O   UNL     1     116.806  99.247 122.833  1.00  0.00    -0.440 OA
ATOM     25  C   UNL     1     118.902  98.782 122.167  1.00  0.00     0.053 A 
ATOM     26  C   UNL     1     117.112  97.984 123.233  1.00  0.00     0.196 A 
ATOM     27  C   UNL     1     118.390  97.652 122.848  1.00  0.00     0.070 A 
BRANCH  26  28
ATOM     28  N   UNL     1     116.147  97.281 123.921  1.00  0.00    -0.340 N 
ATOM     29  C   UNL     1     116.396  96.023 124.629  1.00  0.00     0.151 C 
ATOM     30  C   UNL     1     114.749  97.690 124.019  1.00  0.00     0.122 C 
ATOM     31  C   UNL     1     114.997  95.510 124.970  1.00  0.00     0.135 C 
ATOM     32  C   UNL     1     114.176  96.782 125.107  1.00  0.00     0.055 C 
BRANCH  31  33
ATOM     33  O   UNL     1     114.510  94.725 123.886  1.00  0.00    -0.391 OA
ATOM     34  H   UNL     1     114.867  93.828 123.993  1.00  0.00     0.211 HD
ENDBRANCH  31  33
ENDBRANCH  26  28
ENDBRANCH   5  23
TORSDOF 5
ENDMDL
