MODEL 1
REMARK VINA RESULT:      -8.5      0.000      0.000
REMARK SMILES C[C@]12CCC(=O)CC1=CC[C@@H]1[C@@H]2[C@@H](O)C[C@@]2(C)[C@H]1CC[C@]2(O)C(=O)[C@@H](O)CC(=O)O
REMARK SMILES IDX 25 1 23 2 24 3 21 4 16 5 20 6 18 7 15 8 19 9 11 10 13 11
REMARK SMILES IDX 12 12 10 13 2 14 9 15 8 16 3 17 7 18 4 19 5 20 6 21 17 22
REMARK SMILES IDX 1 23 22 24 14 26 26 28 27 30 28 31 29 32 30 33
REMARK H PARENT 22 25 14 27 26 29 30 34
ROOT
ATOM      1  C   UNL     1     106.422  93.543 112.438  1.00  0.00     0.195 C 
ENDROOT
BRANCH   1   2
ATOM      2  C   UNL     1     105.567  92.560 113.227  1.00  0.00     0.193 C 
ATOM      3  O   UNL     1     104.736  91.833 112.682  1.00  0.00    -0.293 OA
BRANCH   2   4
ATOM      4  C   UNL     1     105.771  92.519 114.711  1.00  0.00     0.131 C 
ATOM      5  C   UNL     1     104.526  92.891 115.564  1.00  0.00     0.009 C 
ATOM      6  C   UNL     1     106.860  93.513 115.176  1.00  0.00     0.044 C 
ATOM      7  C   UNL     1     105.215  93.163 116.917  1.00  0.00     0.002 C 
ATOM      8  C   UNL     1     103.496  91.769 115.804  1.00  0.00     0.042 C 
ATOM      9  C   UNL     1     106.398  94.053 116.544  1.00  0.00     0.008 C 
ATOM     10  C   UNL     1     104.262  93.644 118.022  1.00  0.00     0.003 C 
ATOM     11  C   UNL     1     102.471  92.117 116.906  1.00  0.00     0.119 C 
ATOM     12  C   UNL     1     103.133  92.591 118.239  1.00  0.00     0.031 C 
ATOM     13  C   UNL     1     105.052  93.857 119.326  1.00  0.00     0.031 C 
ATOM     14  C   UNL     1     102.137  93.029 119.398  1.00  0.00    -0.005 C 
ATOM     15  C   UNL     1     104.212  93.895 120.559  1.00  0.00    -0.026 C 
ATOM     16  C   UNL     1     102.916  93.544 120.621  1.00  0.00    -0.061 C 
ATOM     17  C   UNL     1     101.320  91.769 119.818  1.00  0.00     0.019 C 
ATOM     18  C   UNL     1     102.178  93.680 121.931  1.00  0.00     0.106 C 
ATOM     19  C   UNL     1     100.491  91.948 121.083  1.00  0.00     0.077 C 
ATOM     20  C   UNL     1     101.384  92.424 122.199  1.00  0.00     0.136 C 
ATOM     21  O   UNL     1     101.397  91.872 123.297  1.00  0.00    -0.299 OA
ATOM     22  C   UNL     1     103.847  94.152 114.964  1.00  0.00     0.015 C 
ATOM     23  C   UNL     1     101.169  94.154 118.966  1.00  0.00     0.016 C 
BRANCH   4  24
ATOM     24  O   UNL     1     106.244  91.200 114.972  1.00  0.00    -0.381 OA
ATOM     25  H   UNL     1     105.759  90.574 114.410  1.00  0.00     0.212 HD
ENDBRANCH   4  24
BRANCH  11  26
ATOM     26  O   UNL     1     101.556  93.075 116.394  1.00  0.00    -0.393 OA
ATOM     27  H   UNL     1     100.956  92.616 115.781  1.00  0.00     0.210 HD
ENDBRANCH  11  26
ENDBRANCH   2   4
ENDBRANCH   1   2
BRANCH   1  28
ATOM     28  O   UNL     1     107.198  92.822 111.492  1.00  0.00    -0.385 OA
ATOM     29  H   UNL     1     106.944  91.885 111.541  1.00  0.00     0.211 HD
ENDBRANCH   1  28
BRANCH   1  30
ATOM     30  C   UNL     1     105.557  94.550 111.687  1.00  0.00     0.162 C 
BRANCH  30  31
ATOM     31  C   UNL     1     106.390  95.708 111.191  1.00  0.00     0.306 C 
ATOM     32  O   UNL     1     106.487  96.780 111.773  1.00  0.00    -0.252 OA
BRANCH  31  33
ATOM     33  O   UNL     1     107.019  95.432 110.021  1.00  0.00    -0.481 OA
ATOM     34  H   UNL     1     106.411  95.505 109.254  1.00  0.00     0.296 HD
ENDBRANCH  31  33
ENDBRANCH  30  31
ENDBRANCH   1  30
TORSDOF 8
ENDMDL
MODEL 2
REMARK VINA RESULT:      -7.3      2.882      8.749
REMARK SMILES C[C@]12CCC(=O)CC1=CC[C@@H]1[C@@H]2[C@@H](O)C[C@@]2(C)[C@H]1CC[C@]2(O)C(=O)[C@@H](O)CC(=O)O
REMARK SMILES IDX 25 1 23 2 24 3 21 4 16 5 20 6 18 7 15 8 19 9 11 10 13 11
REMARK SMILES IDX 12 12 10 13 2 14 9 15 8 16 3 17 7 18 4 19 5 20 6 21 17 22
REMARK SMILES IDX 1 23 22 24 14 26 26 28 27 30 28 31 29 32 30 33
REMARK H PARENT 22 25 14 27 26 29 30 34
ROOT
ATOM      1  C   UNL     1     103.431  94.780 121.865  1.00  0.00     0.195 C 
ENDROOT
BRANCH   1   2
ATOM      2  C   UNL     1     104.255  95.550 120.841  1.00  0.00     0.193 C 
ATOM      3  O   UNL     1     104.516  96.745 120.978  1.00  0.00    -0.293 OA
BRANCH   2   4
ATOM      4  C   UNL     1     104.732  94.790 119.640  1.00  0.00     0.131 C 
ATOM      5  C   UNL     1     104.403  95.441 118.267  1.00  0.00     0.009 C 
ATOM      6  C   UNL     1     104.099  93.382 119.554  1.00  0.00     0.044 C 
ATOM      7  C   UNL     1     104.629  94.223 117.347  1.00  0.00     0.002 C 
ATOM      8  C   UNL     1     105.359  96.550 117.785  1.00  0.00     0.042 C 
ATOM      9  C   UNL     1     103.882  93.095 118.055  1.00  0.00     0.008 C 
ATOM     10  C   UNL     1     104.315  94.488 115.866  1.00  0.00     0.003 C 
ATOM     11  C   UNL     1     105.157  96.915 116.298  1.00  0.00     0.119 C 
ATOM     12  C   UNL     1     105.182  95.675 115.348  1.00  0.00     0.031 C 
ATOM     13  C   UNL     1     104.600  93.218 115.045  1.00  0.00     0.031 C 
ATOM     14  C   UNL     1     104.916  95.967 113.808  1.00  0.00    -0.005 C 
ATOM     15  C   UNL     1     104.759  93.453 113.580  1.00  0.00    -0.026 C 
ATOM     16  C   UNL     1     104.891  94.658 113.001  1.00  0.00    -0.061 C 
ATOM     17  C   UNL     1     106.087  96.855 113.288  1.00  0.00     0.019 C 
ATOM     18  C   UNL     1     104.995  94.745 111.497  1.00  0.00     0.106 C 
ATOM     19  C   UNL     1     106.122  97.029 111.775  1.00  0.00     0.077 C 
ATOM     20  C   UNL     1     106.125  95.673 111.119  1.00  0.00     0.136 C 
ATOM     21  O   UNL     1     106.949  95.372 110.259  1.00  0.00    -0.299 OA
ATOM     22  C   UNL     1     102.931  95.935 118.270  1.00  0.00     0.015 C 
ATOM     23  C   UNL     1     103.570  96.685 113.556  1.00  0.00     0.016 C 
BRANCH   4  24
ATOM     24  O   UNL     1     106.132  94.627 119.851  1.00  0.00    -0.381 OA
ATOM     25  H   UNL     1     106.303  94.576 120.806  1.00  0.00     0.212 HD
ENDBRANCH   4  24
BRANCH  11  26
ATOM     26  O   UNL     1     103.957  97.663 116.169  1.00  0.00    -0.393 OA
ATOM     27  H   UNL     1     103.268  97.066 115.830  1.00  0.00     0.210 HD
ENDBRANCH  11  26
ENDBRANCH   2   4
ENDBRANCH   1   2
BRANCH   1  28
ATOM     28  O   UNL     1     104.309  94.195 122.815  1.00  0.00    -0.385 OA
ATOM     29  H   UNL     1     104.461  94.840 123.526  1.00  0.00     0.211 HD
ENDBRANCH   1  28
BRANCH   1  30
ATOM     30  C   UNL     1     102.463  95.700 122.601  1.00  0.00     0.162 C 
BRANCH  30  31
ATOM     31  C   UNL     1     102.956  95.986 124.000  1.00  0.00     0.306 C 
ATOM     32  O   UNL     1     102.496  95.466 125.008  1.00  0.00    -0.252 OA
BRANCH  31  33
ATOM     33  O   UNL     1     103.965  96.893 124.019  1.00  0.00    -0.481 OA
ATOM     34  H   UNL     1     104.564  96.788 123.249  1.00  0.00     0.296 HD
ENDBRANCH  31  33
ENDBRANCH  30  31
ENDBRANCH   1  30
TORSDOF 8
ENDMDL
MODEL 3
REMARK VINA RESULT:      -6.8      1.979      3.222
REMARK SMILES C[C@]12CCC(=O)CC1=CC[C@@H]1[C@@H]2[C@@H](O)C[C@@]2(C)[C@H]1CC[C@]2(O)C(=O)[C@@H](O)CC(=O)O
REMARK SMILES IDX 25 1 23 2 24 3 21 4 16 5 20 6 18 7 15 8 19 9 11 10 13 11
REMARK SMILES IDX 12 12 10 13 2 14 9 15 8 16 3 17 7 18 4 19 5 20 6 21 17 22
REMARK SMILES IDX 1 23 22 24 14 26 26 28 27 30 28 31 29 32 30 33
REMARK H PARENT 22 25 14 27 26 29 30 34
ROOT
ATOM      1  C   UNL     1     105.812  95.654 112.331  1.00  0.00     0.195 C 
ENDROOT
BRANCH   1   2
ATOM      2  C   UNL     1     105.983  95.321 113.807  1.00  0.00     0.193 C 
ATOM      3  O   UNL     1     106.907  94.617 114.215  1.00  0.00    -0.293 OA
BRANCH   2   4
ATOM      4  C   UNL     1     104.965  95.882 114.754  1.00  0.00     0.131 C 
ATOM      5  C   UNL     1     104.577  94.953 115.939  1.00  0.00     0.009 C 
ATOM      6  C   UNL     1     103.621  96.181 114.051  1.00  0.00     0.044 C 
ATOM      7  C   UNL     1     103.269  95.640 116.384  1.00  0.00     0.002 C 
ATOM      8  C   UNL     1     105.524  94.959 117.156  1.00  0.00     0.042 C 
ATOM      9  C   UNL     1     102.515  95.857 115.075  1.00  0.00     0.008 C 
ATOM     10  C   UNL     1     102.544  94.924 117.534  1.00  0.00     0.003 C 
ATOM     11  C   UNL     1     104.914  94.273 118.398  1.00  0.00     0.119 C 
ATOM     12  C   UNL     1     103.492  94.808 118.765  1.00  0.00     0.031 C 
ATOM     13  C   UNL     1     101.275  95.709 117.909  1.00  0.00     0.031 C 
ATOM     14  C   UNL     1     102.775  94.101 119.995  1.00  0.00    -0.005 C 
ATOM     15  C   UNL     1     100.724  95.386 119.258  1.00  0.00    -0.026 C 
ATOM     16  C   UNL     1     101.359  94.669 120.199  1.00  0.00    -0.061 C 
ATOM     17  C   UNL     1     103.623  94.397 121.269  1.00  0.00     0.019 C 
ATOM     18  C   UNL     1     100.657  94.380 121.504  1.00  0.00     0.106 C 
ATOM     19  C   UNL     1     102.952  94.002 122.578  1.00  0.00     0.077 C 
ATOM     20  C   UNL     1     101.595  94.650 122.657  1.00  0.00     0.136 C 
ATOM     21  O   UNL     1     101.239  95.290 123.644  1.00  0.00    -0.299 OA
ATOM     22  C   UNL     1     104.356  93.509 115.412  1.00  0.00     0.015 C 
ATOM     23  C   UNL     1     102.632  92.573 119.811  1.00  0.00     0.016 C 
BRANCH   4  24
ATOM     24  O   UNL     1     105.519  97.121 115.184  1.00  0.00    -0.381 OA
ATOM     25  H   UNL     1     106.436  96.976 115.467  1.00  0.00     0.212 HD
ENDBRANCH   4  24
BRANCH  11  26
ATOM     26  O   UNL     1     104.918  92.867 118.192  1.00  0.00    -0.393 OA
ATOM     27  H   UNL     1     104.085  92.511 118.546  1.00  0.00     0.210 HD
ENDBRANCH  11  26
ENDBRANCH   2   4
ENDBRANCH   1   2
BRANCH   1  28
ATOM     28  O   UNL     1     106.900  96.466 111.913  1.00  0.00    -0.385 OA
ATOM     29  H   UNL     1     107.561  95.894 111.488  1.00  0.00     0.211 HD
ENDBRANCH   1  28
BRANCH   1  30
ATOM     30  C   UNL     1     105.796  94.390 111.477  1.00  0.00     0.162 C 
BRANCH  30  31
ATOM     31  C   UNL     1     107.122  94.197 110.780  1.00  0.00     0.306 C 
ATOM     32  O   UNL     1     107.364  94.594 109.648  1.00  0.00    -0.252 OA
BRANCH  31  33
ATOM     33  O   UNL     1     108.018  93.528 111.547  1.00  0.00    -0.481 OA
ATOM     34  H   UNL     1     108.933  93.856 111.410  1.00  0.00     0.296 HD
ENDBRANCH  31  33
ENDBRANCH  30  31
ENDBRANCH   1  30
TORSDOF 8
ENDMDL
MODEL 4
REMARK VINA RESULT:      -6.8      1.571      1.934
REMARK SMILES C[C@]12CCC(=O)CC1=CC[C@@H]1[C@@H]2[C@@H](O)C[C@@]2(C)[C@H]1CC[C@]2(O)C(=O)[C@@H](O)CC(=O)O
REMARK SMILES IDX 25 1 23 2 24 3 21 4 16 5 20 6 18 7 15 8 19 9 11 10 13 11
REMARK SMILES IDX 12 12 10 13 2 14 9 15 8 16 3 17 7 18 4 19 5 20 6 21 17 22
REMARK SMILES IDX 1 23 22 24 14 26 26 28 27 30 28 31 29 32 30 33
REMARK H PARENT 22 25 14 27 26 29 30 34
ROOT
ATOM      1  C   UNL     1     105.579  95.220 113.088  1.00  0.00     0.195 C 
ENDROOT
BRANCH   1   2
ATOM      2  C   UNL     1     105.699  94.143 114.158  1.00  0.00     0.193 C 
ATOM      3  O   UNL     1     105.925  92.965 113.877  1.00  0.00    -0.293 OA
BRANCH   2   4
ATOM      4  C   UNL     1     105.519  94.574 115.583  1.00  0.00     0.131 C 
ATOM      5  C   UNL     1     104.237  94.041 116.282  1.00  0.00     0.009 C 
ATOM      6  C   UNL     1     105.412  96.111 115.715  1.00  0.00     0.044 C 
ATOM      7  C   UNL     1     104.180  95.007 117.483  1.00  0.00     0.002 C 
ATOM      8  C   UNL     1     104.311  92.613 116.859  1.00  0.00     0.042 C 
ATOM      9  C   UNL     1     104.405  96.378 116.850  1.00  0.00     0.008 C 
ATOM     10  C   UNL     1     102.954  94.813 118.388  1.00  0.00     0.003 C 
ATOM     11  C   UNL     1     103.134  92.282 117.802  1.00  0.00     0.119 C 
ATOM     12  C   UNL     1     102.919  93.350 118.922  1.00  0.00     0.031 C 
ATOM     13  C   UNL     1     103.018  95.809 119.560  1.00  0.00     0.031 C 
ATOM     14  C   UNL     1     101.682  93.108 119.891  1.00  0.00    -0.005 C 
ATOM     15  C   UNL     1     102.153  95.450 120.723  1.00  0.00    -0.026 C 
ATOM     16  C   UNL     1     101.541  94.267 120.893  1.00  0.00    -0.061 C 
ATOM     17  C   UNL     1     101.954  91.792 120.681  1.00  0.00     0.019 C 
ATOM     18  C   UNL     1     100.656  94.062 122.099  1.00  0.00     0.106 C 
ATOM     19  C   UNL     1     100.988  91.536 121.831  1.00  0.00     0.077 C 
ATOM     20  C   UNL     1     100.973  92.734 122.744  1.00  0.00     0.136 C 
ATOM     21  O   UNL     1     101.124  92.625 123.958  1.00  0.00    -0.299 OA
ATOM     22  C   UNL     1     103.025  94.192 115.323  1.00  0.00     0.015 C 
ATOM     23  C   UNL     1     100.339  92.991 119.135  1.00  0.00     0.016 C 
BRANCH   4  24
ATOM     24  O   UNL     1     106.715  94.161 116.237  1.00  0.00    -0.381 OA
ATOM     25  H   UNL     1     107.440  94.751 115.971  1.00  0.00     0.212 HD
ENDBRANCH   4  24
BRANCH  11  26
ATOM     26  O   UNL     1     101.964  92.084 117.021  1.00  0.00    -0.393 OA
ATOM     27  H   UNL     1     101.411  91.424 117.473  1.00  0.00     0.210 HD
ENDBRANCH  11  26
ENDBRANCH   2   4
ENDBRANCH   1   2
BRANCH   1  28
ATOM     28  O   UNL     1     106.825  95.891 112.970  1.00  0.00    -0.385 OA
ATOM     29  H   UNL     1     107.484  95.405 113.494  1.00  0.00     0.211 HD
ENDBRANCH   1  28
BRANCH   1  30
ATOM     30  C   UNL     1     105.223  94.617 111.733  1.00  0.00     0.162 C 
BRANCH  30  31
ATOM     31  C   UNL     1     106.444  94.529 110.849  1.00  0.00     0.306 C 
ATOM     32  O   UNL     1     106.795  95.411 110.076  1.00  0.00    -0.252 OA
BRANCH  31  33
ATOM     33  O   UNL     1     107.110  93.358 111.000  1.00  0.00    -0.481 OA
ATOM     34  H   UNL     1     106.501  92.589 111.011  1.00  0.00     0.296 HD
ENDBRANCH  31  33
ENDBRANCH  30  31
ENDBRANCH   1  30
TORSDOF 8
ENDMDL
MODEL 5
REMARK VINA RESULT:      -6.7      1.768      8.614
REMARK SMILES C[C@]12CCC(=O)CC1=CC[C@@H]1[C@@H]2[C@@H](O)C[C@@]2(C)[C@H]1CC[C@]2(O)C(=O)[C@@H](O)CC(=O)O
REMARK SMILES IDX 25 1 23 2 24 3 21 4 16 5 20 6 18 7 15 8 19 9 11 10 13 11
REMARK SMILES IDX 12 12 10 13 2 14 9 15 8 16 3 17 7 18 4 19 5 20 6 21 17 22
REMARK SMILES IDX 1 23 22 24 14 26 26 28 27 30 28 31 29 32 30 33
REMARK H PARENT 22 25 14 27 26 29 30 34
ROOT
ATOM      1  C   UNL     1     101.499  94.306 121.525  1.00  0.00     0.195 C 
ENDROOT
BRANCH   1   2
ATOM      2  C   UNL     1     101.717  93.536 120.230  1.00  0.00     0.193 C 
ATOM      3  O   UNL     1     101.740  92.305 120.198  1.00  0.00    -0.293 OA
BRANCH   2   4
ATOM      4  C   UNL     1     101.914  94.343 118.982  1.00  0.00     0.131 C 
ATOM      5  C   UNL     1     103.206  94.020 118.179  1.00  0.00     0.009 C 
ATOM      6  C   UNL     1     102.020  95.856 119.280  1.00  0.00     0.044 C 
ATOM      7  C   UNL     1     103.276  95.280 117.292  1.00  0.00     0.002 C 
ATOM      8  C   UNL     1     103.141  92.807 117.230  1.00  0.00     0.042 C 
ATOM      9  C   UNL     1     103.042  96.424 118.275  1.00  0.00     0.008 C 
ATOM     10  C   UNL     1     104.515  95.341 116.384  1.00  0.00     0.003 C 
ATOM     11  C   UNL     1     104.331  92.746 116.248  1.00  0.00     0.119 C 
ATOM     12  C   UNL     1     104.559  94.081 115.468  1.00  0.00     0.031 C 
ATOM     13  C   UNL     1     104.464  96.621 115.531  1.00  0.00     0.031 C 
ATOM     14  C   UNL     1     105.808  94.113 114.485  1.00  0.00    -0.005 C 
ATOM     15  C   UNL     1     105.344  96.595 114.326  1.00  0.00    -0.026 C 
ATOM     16  C   UNL     1     105.961  95.503 113.844  1.00  0.00    -0.061 C 
ATOM     17  C   UNL     1     105.549  93.066 113.360  1.00  0.00     0.019 C 
ATOM     18  C   UNL     1     106.862  95.637 112.640  1.00  0.00     0.106 C 
ATOM     19  C   UNL     1     106.530  93.136 112.197  1.00  0.00     0.077 C 
ATOM     20  C   UNL     1     106.554  94.539 111.650  1.00  0.00     0.136 C 
ATOM     21  O   UNL     1     106.419  94.769 110.450  1.00  0.00    -0.299 OA
ATOM     22  C   UNL     1     104.406  93.899 119.158  1.00  0.00     0.015 C 
ATOM     23  C   UNL     1     107.142  93.790 115.197  1.00  0.00     0.016 C 
BRANCH   4  24
ATOM     24  O   UNL     1     100.727  94.129 118.224  1.00  0.00    -0.381 OA
ATOM     25  H   UNL     1     100.057  93.720 118.796  1.00  0.00     0.212 HD
ENDBRANCH   4  24
BRANCH  11  26
ATOM     26  O   UNL     1     105.492  92.338 116.958  1.00  0.00    -0.393 OA
ATOM     27  H   UNL     1     106.163  92.074 116.307  1.00  0.00     0.210 HD
ENDBRANCH  11  26
ENDBRANCH   2   4
ENDBRANCH   1   2
BRANCH   1  28
ATOM     28  O   UNL     1     100.128  94.224 121.885  1.00  0.00    -0.385 OA
ATOM     29  H   UNL     1     100.047  94.444 122.828  1.00  0.00     0.211 HD
ENDBRANCH   1  28
BRANCH   1  30
ATOM     30  C   UNL     1     102.334  93.725 122.662  1.00  0.00     0.162 C 
BRANCH  30  31
ATOM     31  C   UNL     1     101.454  93.017 123.665  1.00  0.00     0.306 C 
ATOM     32  O   UNL     1     101.066  93.521 124.710  1.00  0.00    -0.252 OA
BRANCH  31  33
ATOM     33  O   UNL     1     101.144  91.754 123.282  1.00  0.00    -0.481 OA
ATOM     34  H   UNL     1     100.985  91.693 122.316  1.00  0.00     0.296 HD
ENDBRANCH  31  33
ENDBRANCH  30  31
ENDBRANCH   1  30
TORSDOF 8
ENDMDL
MODEL 6
REMARK VINA RESULT:      -6.7      2.044      2.565
REMARK SMILES C[C@]12CCC(=O)CC1=CC[C@@H]1[C@@H]2[C@@H](O)C[C@@]2(C)[C@H]1CC[C@]2(O)C(=O)[C@@H](O)CC(=O)O
REMARK SMILES IDX 25 1 23 2 24 3 21 4 16 5 20 6 18 7 15 8 19 9 11 10 13 11
REMARK SMILES IDX 12 12 10 13 2 14 9 15 8 16 3 17 7 18 4 19 5 20 6 21 17 22
REMARK SMILES IDX 1 23 22 24 14 26 26 28 27 30 28 31 29 32 30 33
REMARK H PARENT 22 25 14 27 26 29 30 34
ROOT
ATOM      1  C   UNL     1     106.383  93.719 112.573  1.00  0.00     0.195 C 
ENDROOT
BRANCH   1   2
ATOM      2  C   UNL     1     105.784  93.311 113.912  1.00  0.00     0.193 C 
ATOM      3  O   UNL     1     105.126  92.279 114.047  1.00  0.00    -0.293 OA
BRANCH   2   4
ATOM      4  C   UNL     1     106.019  94.231 115.073  1.00  0.00     0.131 C 
ATOM      5  C   UNL     1     104.934  94.187 116.186  1.00  0.00     0.009 C 
ATOM      6  C   UNL     1     106.058  95.714 114.639  1.00  0.00     0.044 C 
ATOM      7  C   UNL     1     105.266  95.505 116.917  1.00  0.00     0.002 C 
ATOM      8  C   UNL     1     105.059  93.055 117.225  1.00  0.00     0.042 C 
ATOM      9  C   UNL     1     105.409  96.517 115.784  1.00  0.00     0.008 C 
ATOM     10  C   UNL     1     104.313  95.837 118.076  1.00  0.00     0.003 C 
ATOM     11  C   UNL     1     104.154  93.265 118.458  1.00  0.00     0.119 C 
ATOM     12  C   UNL     1     104.319  94.674 119.113  1.00  0.00     0.031 C 
ATOM     13  C   UNL     1     104.754  97.151 118.744  1.00  0.00     0.031 C 
ATOM     14  C   UNL     1     103.370  94.985 120.350  1.00  0.00    -0.005 C 
ATOM     15  C   UNL     1     104.207  97.362 120.116  1.00  0.00    -0.026 C 
ATOM     16  C   UNL     1     103.580  96.426 120.849  1.00  0.00    -0.061 C 
ATOM     17  C   UNL     1     103.749  93.998 121.495  1.00  0.00     0.019 C 
ATOM     18  C   UNL     1     103.035  96.797 122.207  1.00  0.00     0.106 C 
ATOM     19  C   UNL     1     103.107  94.315 122.839  1.00  0.00     0.077 C 
ATOM     20  C   UNL     1     103.419  95.741 123.215  1.00  0.00     0.136 C 
ATOM     21  O   UNL     1     103.879  96.034 124.316  1.00  0.00    -0.299 OA
ATOM     22  C   UNL     1     103.524  94.193 115.534  1.00  0.00     0.015 C 
ATOM     23  C   UNL     1     101.870  94.834 120.011  1.00  0.00     0.016 C 
BRANCH   4  24
ATOM     24  O   UNL     1     107.314  93.882 115.552  1.00  0.00    -0.381 OA
ATOM     25  H   UNL     1     107.974  94.447 115.118  1.00  0.00     0.212 HD
ENDBRANCH   4  24
BRANCH  11  26
ATOM     26  O   UNL     1     102.808  93.002 118.088  1.00  0.00    -0.393 OA
ATOM     27  H   UNL     1     102.706  92.040 117.997  1.00  0.00     0.210 HD
ENDBRANCH  11  26
ENDBRANCH   2   4
ENDBRANCH   1   2
BRANCH   1  28
ATOM     28  O   UNL     1     106.816  92.553 111.889  1.00  0.00    -0.385 OA
ATOM     29  H   UNL     1     107.470  92.098 112.446  1.00  0.00     0.211 HD
ENDBRANCH   1  28
BRANCH   1  30
ATOM     30  C   UNL     1     105.357  94.438 111.704  1.00  0.00     0.162 C 
BRANCH  30  31
ATOM     31  C   UNL     1     106.010  95.543 110.908  1.00  0.00     0.306 C 
ATOM     32  O   UNL     1     106.901  95.363 110.089  1.00  0.00    -0.252 OA
BRANCH  31  33
ATOM     33  O   UNL     1     105.503  96.766 111.205  1.00  0.00    -0.481 OA
ATOM     34  H   UNL     1     104.663  96.700 111.708  1.00  0.00     0.296 HD
ENDBRANCH  31  33
ENDBRANCH  30  31
ENDBRANCH   1  30
TORSDOF 8
ENDMDL
MODEL 7
REMARK VINA RESULT:      -6.7     14.106     16.816
REMARK SMILES C[C@]12CCC(=O)CC1=CC[C@@H]1[C@@H]2[C@@H](O)C[C@@]2(C)[C@H]1CC[C@]2(O)C(=O)[C@@H](O)CC(=O)O
REMARK SMILES IDX 25 1 23 2 24 3 21 4 16 5 20 6 18 7 15 8 19 9 11 10 13 11
REMARK SMILES IDX 12 12 10 13 2 14 9 15 8 16 3 17 7 18 4 19 5 20 6 21 17 22
REMARK SMILES IDX 1 23 22 24 14 26 26 28 27 30 28 31 29 32 30 33
REMARK H PARENT 22 25 14 27 26 29 30 34
ROOT
ATOM      1  C   UNL     1     119.511  95.575 121.418  1.00  0.00     0.195 C 
ENDROOT
BRANCH   1   2
ATOM      2  C   UNL     1     118.659  96.525 122.249  1.00  0.00     0.193 C 
ATOM      3  O   UNL     1     118.888  96.736 123.440  1.00  0.00    -0.293 OA
BRANCH   2   4
ATOM      4  C   UNL     1     117.509  97.192 121.555  1.00  0.00     0.131 C 
ATOM      5  C   UNL     1     117.774  98.648 121.079  1.00  0.00     0.009 C 
ATOM      6  C   UNL     1     116.269  97.312 122.471  1.00  0.00     0.044 C 
ATOM      7  C   UNL     1     116.320  99.111 120.852  1.00  0.00     0.002 C 
ATOM      8  C   UNL     1     118.511  98.808 119.734  1.00  0.00     0.042 C 
ATOM      9  C   UNL     1     115.597  98.653 122.115  1.00  0.00     0.008 C 
ATOM     10  C   UNL     1     116.189 100.582 120.428  1.00  0.00     0.003 C 
ATOM     11  C   UNL     1     118.452 100.249 119.183  1.00  0.00     0.119 C 
ATOM     12  C   UNL     1     117.002 100.830 119.123  1.00  0.00     0.031 C 
ATOM     13  C   UNL     1     114.704 100.922 120.206  1.00  0.00     0.031 C 
ATOM     14  C   UNL     1     116.871 102.334 118.626  1.00  0.00    -0.005 C 
ATOM     15  C   UNL     1     114.467 102.149 119.391  1.00  0.00    -0.026 C 
ATOM     16  C   UNL     1     115.407 102.803 118.688  1.00  0.00    -0.061 C 
ATOM     17  C   UNL     1     117.352 102.384 117.144  1.00  0.00     0.019 C 
ATOM     18  C   UNL     1     115.030 104.062 117.946  1.00  0.00     0.106 C 
ATOM     19  C   UNL     1     117.065 103.700 116.432  1.00  0.00     0.077 C 
ATOM     20  C   UNL     1     115.596 104.017 116.547  1.00  0.00     0.136 C 
ATOM     21  O   UNL     1     114.918 104.310 115.565  1.00  0.00    -0.299 OA
ATOM     22  C   UNL     1     118.494  99.437 122.207  1.00  0.00     0.015 C 
ATOM     23  C   UNL     1     117.704 103.323 119.474  1.00  0.00     0.016 C 
BRANCH   4  24
ATOM     24  O   UNL     1     117.177  96.313 120.484  1.00  0.00    -0.381 OA
ATOM     25  H   UNL     1     117.641  96.605 119.682  1.00  0.00     0.212 HD
ENDBRANCH   4  24
BRANCH  11  26
ATOM     26  O   UNL     1     119.324 101.068 119.948  1.00  0.00    -0.393 OA
ATOM     27  H   UNL     1     118.787 101.551 120.598  1.00  0.00     0.210 HD
ENDBRANCH  11  26
ENDBRANCH   2   4
ENDBRANCH   1   2
BRANCH   1  28
ATOM     28  O   UNL     1     119.876  96.223 120.209  1.00  0.00    -0.385 OA
ATOM     29  H   UNL     1     120.309  97.065 120.433  1.00  0.00     0.211 HD
ENDBRANCH   1  28
BRANCH   1  30
ATOM     30  C   UNL     1     120.785  95.182 122.160  1.00  0.00     0.162 C 
BRANCH  30  31
ATOM     31  C   UNL     1     121.912  96.132 121.830  1.00  0.00     0.306 C 
ATOM     32  O   UNL     1     122.763  95.914 120.979  1.00  0.00    -0.252 OA
BRANCH  31  33
ATOM     33  O   UNL     1     121.882  97.256 122.588  1.00  0.00    -0.481 OA
ATOM     34  H   UNL     1     121.262  97.171 123.344  1.00  0.00     0.296 HD
ENDBRANCH  31  33
ENDBRANCH  30  31
ENDBRANCH   1  30
TORSDOF 8
ENDMDL
MODEL 8
REMARK VINA RESULT:      -6.7      3.511      4.263
REMARK SMILES C[C@]12CCC(=O)CC1=CC[C@@H]1[C@@H]2[C@@H](O)C[C@@]2(C)[C@H]1CC[C@]2(O)C(=O)[C@@H](O)CC(=O)O
REMARK SMILES IDX 25 1 23 2 24 3 21 4 16 5 20 6 18 7 15 8 19 9 11 10 13 11
REMARK SMILES IDX 12 12 10 13 2 14 9 15 8 16 3 17 7 18 4 19 5 20 6 21 17 22
REMARK SMILES IDX 1 23 22 24 14 26 26 28 27 30 28 31 29 32 30 33
REMARK H PARENT 22 25 14 27 26 29 30 34
ROOT
ATOM      1  C   UNL     1     105.873  93.297 112.801  1.00  0.00     0.195 C 
ENDROOT
BRANCH   1   2
ATOM      2  C   UNL     1     104.642  93.521 113.669  1.00  0.00     0.193 C 
ATOM      3  O   UNL     1     103.505  93.539 113.198  1.00  0.00    -0.293 OA
BRANCH   2   4
ATOM      4  C   UNL     1     104.871  93.730 115.136  1.00  0.00     0.131 C 
ATOM      5  C   UNL     1     104.683  95.190 115.636  1.00  0.00     0.009 C 
ATOM      6  C   UNL     1     106.315  93.368 115.555  1.00  0.00     0.044 C 
ATOM      7  C   UNL     1     105.406  95.089 116.996  1.00  0.00     0.002 C 
ATOM      8  C   UNL     1     103.237  95.636 115.930  1.00  0.00     0.042 C 
ATOM      9  C   UNL     1     106.711  94.373 116.655  1.00  0.00     0.008 C 
ATOM     10  C   UNL     1     105.482  96.416 117.766  1.00  0.00     0.003 C 
ATOM     11  C   UNL     1     103.163  96.964 116.715  1.00  0.00     0.119 C 
ATOM     12  C   UNL     1     104.045  96.971 118.004  1.00  0.00     0.031 C 
ATOM     13  C   UNL     1     106.197  96.189 119.110  1.00  0.00     0.031 C 
ATOM     14  C   UNL     1     104.070  98.330 118.828  1.00  0.00    -0.005 C 
ATOM     15  C   UNL     1     105.959  97.258 120.125  1.00  0.00    -0.026 C 
ATOM     16  C   UNL     1     105.032  98.225 120.024  1.00  0.00    -0.061 C 
ATOM     17  C   UNL     1     102.628  98.581 119.365  1.00  0.00     0.019 C 
ATOM     18  C   UNL     1     104.937  99.270 121.109  1.00  0.00     0.106 C 
ATOM     19  C   UNL     1     102.521  99.712 120.380  1.00  0.00     0.077 C 
ATOM     20  C   UNL     1     103.493  99.463 121.504  1.00  0.00     0.136 C 
ATOM     21  O   UNL     1     103.144  99.504 122.682  1.00  0.00    -0.299 OA
ATOM     22  C   UNL     1     105.379  96.168 114.650  1.00  0.00     0.015 C 
ATOM     23  C   UNL     1     104.525  99.540 117.981  1.00  0.00     0.016 C 
BRANCH   4  24
ATOM     24  O   UNL     1     103.988  92.812 115.772  1.00  0.00    -0.381 OA
ATOM     25  H   UNL     1     103.274  93.308 116.205  1.00  0.00     0.212 HD
ENDBRANCH   4  24
BRANCH  11  26
ATOM     26  O   UNL     1     103.490  98.033 115.838  1.00  0.00    -0.393 OA
ATOM     27  H   UNL     1     104.078  97.682 115.147  1.00  0.00     0.210 HD
ENDBRANCH  11  26
ENDBRANCH   2   4
ENDBRANCH   1   2
BRANCH   1  28
ATOM     28  O   UNL     1     105.907  91.938 112.392  1.00  0.00    -0.385 OA
ATOM     29  H   UNL     1     105.503  91.399 113.093  1.00  0.00     0.211 HD
ENDBRANCH   1  28
BRANCH   1  30
ATOM     30  C   UNL     1     105.839  94.177 111.555  1.00  0.00     0.162 C 
BRANCH  30  31
ATOM     31  C   UNL     1     107.163  94.131 110.832  1.00  0.00     0.306 C 
ATOM     32  O   UNL     1     107.355  94.616 109.724  1.00  0.00    -0.252 OA
BRANCH  31  33
ATOM     33  O   UNL     1     108.122  93.487 111.542  1.00  0.00    -0.481 OA
ATOM     34  H   UNL     1     107.780  93.155 112.400  1.00  0.00     0.296 HD
ENDBRANCH  31  33
ENDBRANCH  30  31
ENDBRANCH   1  30
TORSDOF 8
ENDMDL
MODEL 9
REMARK VINA RESULT:      -6.6     14.442     16.730
REMARK SMILES C[C@]12CCC(=O)CC1=CC[C@@H]1[C@@H]2[C@@H](O)C[C@@]2(C)[C@H]1CC[C@]2(O)C(=O)[C@@H](O)CC(=O)O
REMARK SMILES IDX 25 1 23 2 24 3 21 4 16 5 20 6 18 7 15 8 19 9 11 10 13 11
REMARK SMILES IDX 12 12 10 13 2 14 9 15 8 16 3 17 7 18 4 19 5 20 6 21 17 22
REMARK SMILES IDX 1 23 22 24 14 26 26 28 27 30 28 31 29 32 30 33
REMARK H PARENT 22 25 14 27 26 29 30 34
ROOT
ATOM      1  C   UNL     1     115.255 103.525 118.024  1.00  0.00     0.195 C 
ENDROOT
BRANCH   1   2
ATOM      2  C   UNL     1     115.155 103.654 119.538  1.00  0.00     0.193 C 
ATOM      3  O   UNL     1     114.203 104.212 120.085  1.00  0.00    -0.293 OA
BRANCH   2   4
ATOM      4  C   UNL     1     116.278 103.077 120.346  1.00  0.00     0.131 C 
ATOM      5  C   UNL     1     116.630 101.596 120.033  1.00  0.00     0.009 C 
ATOM      6  C   UNL     1     115.965 103.081 121.860  1.00  0.00     0.044 C 
ATOM      7  C   UNL     1     117.453 101.257 121.294  1.00  0.00     0.002 C 
ATOM      8  C   UNL     1     117.549 101.349 118.819  1.00  0.00     0.042 C 
ATOM      9  C   UNL     1     116.596 101.798 122.436  1.00  0.00     0.008 C 
ATOM     10  C   UNL     1     117.922  99.796 121.363  1.00  0.00     0.003 C 
ATOM     11  C   UNL     1     118.105  99.909 118.767  1.00  0.00     0.119 C 
ATOM     12  C   UNL     1     118.775  99.456 120.104  1.00  0.00     0.031 C 
ATOM     13  C   UNL     1     118.750  99.582 122.643  1.00  0.00     0.031 C 
ATOM     14  C   UNL     1     119.312  97.960 120.145  1.00  0.00    -0.005 C 
ATOM     15  C   UNL     1     119.615  98.367 122.624  1.00  0.00    -0.026 C 
ATOM     16  C   UNL     1     119.876  97.622 121.537  1.00  0.00    -0.061 C 
ATOM     17  C   UNL     1     120.460  97.843 119.097  1.00  0.00     0.019 C 
ATOM     18  C   UNL     1     120.733  96.387 121.677  1.00  0.00     0.106 C 
ATOM     19  C   UNL     1     121.254  96.545 119.173  1.00  0.00     0.077 C 
ATOM     20  C   UNL     1     121.768  96.359 120.577  1.00  0.00     0.136 C 
ATOM     21  O   UNL     1     122.949  96.110 120.806  1.00  0.00    -0.299 OA
ATOM     22  C   UNL     1     115.322 100.767 119.920  1.00  0.00     0.015 C 
ATOM     23  C   UNL     1     118.215  96.918 119.831  1.00  0.00     0.016 C 
BRANCH   4  24
ATOM     24  O   UNL     1     117.372 103.963 120.124  1.00  0.00    -0.381 OA
ATOM     25  H   UNL     1     117.256 104.398 119.264  1.00  0.00     0.212 HD
ENDBRANCH   4  24
BRANCH  11  26
ATOM     26  O   UNL     1     117.063  99.031 118.367  1.00  0.00    -0.393 OA
ATOM     27  H   UNL     1     116.773  99.297 117.478  1.00  0.00     0.210 HD
ENDBRANCH  11  26
ENDBRANCH   2   4
ENDBRANCH   1   2
BRANCH   1  28
ATOM     28  O   UNL     1     113.984 103.155 117.509  1.00  0.00    -0.385 OA
ATOM     29  H   UNL     1     113.736 102.299 117.897  1.00  0.00     0.211 HD
ENDBRANCH   1  28
BRANCH   1  30
ATOM     30  C   UNL     1     115.672 104.845 117.382  1.00  0.00     0.162 C 
BRANCH  30  31
ATOM     31  C   UNL     1     116.139 104.626 115.963  1.00  0.00     0.306 C 
ATOM     32  O   UNL     1     115.491 104.030 115.113  1.00  0.00    -0.252 OA
BRANCH  31  33
ATOM     33  O   UNL     1     117.364 105.161 115.732  1.00  0.00    -0.481 OA
ATOM     34  H   UNL     1     117.613 105.815 116.419  1.00  0.00     0.296 HD
ENDBRANCH  31  33
ENDBRANCH  30  31
ENDBRANCH   1  30
TORSDOF 8
ENDMDL
MODEL 10
REMARK VINA RESULT:      -6.6     13.507     15.254
REMARK SMILES C[C@]12CCC(=O)CC1=CC[C@@H]1[C@@H]2[C@@H](O)C[C@@]2(C)[C@H]1CC[C@]2(O)C(=O)[C@@H](O)CC(=O)O
REMARK SMILES IDX 25 1 23 2 24 3 21 4 16 5 20 6 18 7 15 8 19 9 11 10 13 11
REMARK SMILES IDX 12 12 10 13 2 14 9 15 8 16 3 17 7 18 4 19 5 20 6 21 17 22
REMARK SMILES IDX 1 23 22 24 14 26 26 28 27 30 28 31 29 32 30 33
REMARK H PARENT 22 25 14 27 26 29 30 34
ROOT
ATOM      1  C   UNL     1     121.432  96.179 119.659  1.00  0.00     0.195 C 
ENDROOT
BRANCH   1   2
ATOM      2  C   UNL     1     120.314  97.164 119.972  1.00  0.00     0.193 C 
ATOM      3  O   UNL     1     120.524  98.370 120.106  1.00  0.00    -0.293 OA
BRANCH   2   4
ATOM      4  C   UNL     1     118.932  96.602 120.122  1.00  0.00     0.131 C 
ATOM      5  C   UNL     1     118.137  97.114 121.356  1.00  0.00     0.009 C 
ATOM      6  C   UNL     1     118.946  95.065 120.292  1.00  0.00     0.044 C 
ATOM      7  C   UNL     1     117.034  96.036 121.414  1.00  0.00     0.002 C 
ATOM      8  C   UNL     1     117.426  98.474 121.201  1.00  0.00     0.042 C 
ATOM      9  C   UNL     1     117.805  94.727 121.271  1.00  0.00     0.008 C 
ATOM     10  C   UNL     1     116.069  96.189 122.600  1.00  0.00     0.003 C 
ATOM     11  C   UNL     1     116.412  98.757 122.330  1.00  0.00     0.119 C 
ATOM     12  C   UNL     1     115.394  97.593 122.554  1.00  0.00     0.031 C 
ATOM     13  C   UNL     1     115.002  95.081 122.540  1.00  0.00     0.031 C 
ATOM     14  C   UNL     1     114.360  97.787 123.745  1.00  0.00    -0.005 C 
ATOM     15  C   UNL     1     113.778  95.357 123.349  1.00  0.00    -0.026 C 
ATOM     16  C   UNL     1     113.471  96.541 123.904  1.00  0.00    -0.061 C 
ATOM     17  C   UNL     1     113.456  99.007 123.391  1.00  0.00     0.019 C 
ATOM     18  C   UNL     1     112.218  96.661 124.738  1.00  0.00     0.106 C 
ATOM     19  C   UNL     1     112.252  99.186 124.305  1.00  0.00     0.077 C 
ATOM     20  C   UNL     1     111.460  97.905 124.341  1.00  0.00     0.136 C 
ATOM     21  O   UNL     1     110.247  97.888 124.145  1.00  0.00    -0.299 OA
ATOM     22  C   UNL     1     119.060  97.106 122.605  1.00  0.00     0.015 C 
ATOM     23  C   UNL     1     115.050  98.032 125.107  1.00  0.00     0.016 C 
BRANCH   4  24
ATOM     24  O   UNL     1     118.286  96.899 118.888  1.00  0.00    -0.381 OA
ATOM     25  H   UNL     1     118.957  96.966 118.189  1.00  0.00     0.212 HD
ENDBRANCH   4  24
BRANCH  11  26
ATOM     26  O   UNL     1     117.126  99.078 123.516  1.00  0.00    -0.393 OA
ATOM     27  H   UNL     1     118.051  98.807 123.390  1.00  0.00     0.210 HD
ENDBRANCH  11  26
ENDBRANCH   2   4
ENDBRANCH   1   2
BRANCH   1  28
ATOM     28  O   UNL     1     122.043  96.552 118.432  1.00  0.00    -0.385 OA
ATOM     29  H   UNL     1     122.203  95.745 117.914  1.00  0.00     0.211 HD
ENDBRANCH   1  28
BRANCH   1  30
ATOM     30  C   UNL     1     122.496  96.183 120.751  1.00  0.00     0.162 C 
BRANCH  30  31
ATOM     31  C   UNL     1     123.755  95.499 120.275  1.00  0.00     0.306 C 
ATOM     32  O   UNL     1     123.804  94.331 119.912  1.00  0.00    -0.252 OA
BRANCH  31  33
ATOM     33  O   UNL     1     124.834  96.320 120.300  1.00  0.00    -0.481 OA
ATOM     34  H   UNL     1     124.825  96.957 119.553  1.00  0.00     0.296 HD
ENDBRANCH  31  33
ENDBRANCH  30  31
ENDBRANCH   1  30
TORSDOF 8
ENDMDL
MODEL 11
REMARK VINA RESULT:      -6.6     13.666     16.438
REMARK SMILES C[C@]12CCC(=O)CC1=CC[C@@H]1[C@@H]2[C@@H](O)C[C@@]2(C)[C@H]1CC[C@]2(O)C(=O)[C@@H](O)CC(=O)O
REMARK SMILES IDX 25 1 23 2 24 3 21 4 16 5 20 6 18 7 15 8 19 9 11 10 13 11
REMARK SMILES IDX 12 12 10 13 2 14 9 15 8 16 3 17 7 18 4 19 5 20 6 21 17 22
REMARK SMILES IDX 1 23 22 24 14 26 26 28 27 30 28 31 29 32 30 33
REMARK H PARENT 22 25 14 27 26 29 30 34
ROOT
ATOM      1  C   UNL     1     113.747 103.094 120.354  1.00  0.00     0.195 C 
ENDROOT
BRANCH   1   2
ATOM      2  C   UNL     1     114.998 102.675 119.592  1.00  0.00     0.193 C 
ATOM      3  O   UNL     1     115.057 102.711 118.362  1.00  0.00    -0.293 OA
BRANCH   2   4
ATOM      4  C   UNL     1     116.164 102.201 120.405  1.00  0.00     0.131 C 
ATOM      5  C   UNL     1     116.641 100.752 120.103  1.00  0.00     0.009 C 
ATOM      6  C   UNL     1     115.850 102.189 121.919  1.00  0.00     0.044 C 
ATOM      7  C   UNL     1     117.487 100.493 121.367  1.00  0.00     0.002 C 
ATOM      8  C   UNL     1     117.578 100.575 118.892  1.00  0.00     0.042 C 
ATOM      9  C   UNL     1     116.587 100.968 122.504  1.00  0.00     0.008 C 
ATOM     10  C   UNL     1     118.078  99.077 121.447  1.00  0.00     0.003 C 
ATOM     11  C   UNL     1     118.254  99.187 118.850  1.00  0.00     0.119 C 
ATOM     12  C   UNL     1     118.958  98.801 120.191  1.00  0.00     0.031 C 
ATOM     13  C   UNL     1     118.920  98.943 122.729  1.00  0.00     0.031 C 
ATOM     14  C   UNL     1     119.620  97.357 120.243  1.00  0.00    -0.005 C 
ATOM     15  C   UNL     1     119.884  97.804 122.719  1.00  0.00    -0.026 C 
ATOM     16  C   UNL     1     120.208  97.077 121.637  1.00  0.00    -0.061 C 
ATOM     17  C   UNL     1     120.775  97.329 119.196  1.00  0.00     0.019 C 
ATOM     18  C   UNL     1     121.166  95.920 121.787  1.00  0.00     0.106 C 
ATOM     19  C   UNL     1     121.674  96.103 119.282  1.00  0.00     0.077 C 
ATOM     20  C   UNL     1     122.201  95.971 120.688  1.00  0.00     0.136 C 
ATOM     21  O   UNL     1     123.398  95.824 120.919  1.00  0.00    -0.299 OA
ATOM     22  C   UNL     1     115.407  99.815 119.995  1.00  0.00     0.015 C 
ATOM     23  C   UNL     1     118.615  96.223 119.935  1.00  0.00     0.016 C 
BRANCH   4  24
ATOM     24  O   UNL     1     117.180 103.174 120.178  1.00  0.00    -0.381 OA
ATOM     25  H   UNL     1     116.761 104.031 120.000  1.00  0.00     0.212 HD
ENDBRANCH   4  24
BRANCH  11  26
ATOM     26  O   UNL     1     117.290  98.220 118.456  1.00  0.00    -0.393 OA
ATOM     27  H   UNL     1     116.419  98.654 118.447  1.00  0.00     0.210 HD
ENDBRANCH  11  26
ENDBRANCH   2   4
ENDBRANCH   1   2
BRANCH   1  28
ATOM     28  O   UNL     1     113.854 104.470 120.690  1.00  0.00    -0.385 OA
ATOM     29  H   UNL     1     113.851 104.986 119.866  1.00  0.00     0.211 HD
ENDBRANCH   1  28
BRANCH   1  30
ATOM     30  C   UNL     1     112.493 102.898 119.509  1.00  0.00     0.162 C 
BRANCH  30  31
ATOM     31  C   UNL     1     112.111 101.438 119.447  1.00  0.00     0.306 C 
ATOM     32  O   UNL     1     111.561 100.835 120.359  1.00  0.00    -0.252 OA
BRANCH  31  33
ATOM     33  O   UNL     1     112.452 100.862 118.268  1.00  0.00    -0.481 OA
ATOM     34  H   UNL     1     112.092 101.358 117.501  1.00  0.00     0.296 HD
ENDBRANCH  31  33
ENDBRANCH  30  31
ENDBRANCH   1  30
TORSDOF 8
ENDMDL
MODEL 12
REMARK VINA RESULT:      -6.5      3.938      8.426
REMARK SMILES C[C@]12CCC(=O)CC1=CC[C@@H]1[C@@H]2[C@@H](O)C[C@@]2(C)[C@H]1CC[C@]2(O)C(=O)[C@@H](O)CC(=O)O
REMARK SMILES IDX 25 1 23 2 24 3 21 4 16 5 20 6 18 7 15 8 19 9 11 10 13 11
REMARK SMILES IDX 12 12 10 13 2 14 9 15 8 16 3 17 7 18 4 19 5 20 6 21 17 22
REMARK SMILES IDX 1 23 22 24 14 26 26 28 27 30 28 31 29 32 30 33
REMARK H PARENT 22 25 14 27 26 29 30 34
ROOT
ATOM      1  C   UNL     1     104.905  97.942 120.596  1.00  0.00     0.195 C 
ENDROOT
BRANCH   1   2
ATOM      2  C   UNL     1     104.549  96.465 120.492  1.00  0.00     0.193 C 
ATOM      3  O   UNL     1     103.733  95.935 121.246  1.00  0.00    -0.293 OA
BRANCH   2   4
ATOM      4  C   UNL     1     105.246  95.670 119.429  1.00  0.00     0.131 C 
ATOM      5  C   UNL     1     104.754  95.926 117.977  1.00  0.00     0.009 C 
ATOM      6  C   UNL     1     105.063  94.148 119.629  1.00  0.00     0.044 C 
ATOM      7  C   UNL     1     105.344  94.680 117.284  1.00  0.00     0.002 C 
ATOM      8  C   UNL     1     105.342  97.158 117.258  1.00  0.00     0.042 C 
ATOM      9  C   UNL     1     104.959  93.535 118.218  1.00  0.00     0.008 C 
ATOM     10  C   UNL     1     104.982  94.559 115.795  1.00  0.00     0.003 C 
ATOM     11  C   UNL     1     105.058  97.162 115.741  1.00  0.00     0.119 C 
ATOM     12  C   UNL     1     105.463  95.830 115.032  1.00  0.00     0.031 C 
ATOM     13  C   UNL     1     105.643  93.300 115.207  1.00  0.00     0.031 C 
ATOM     14  C   UNL     1     105.140  95.738 113.478  1.00  0.00    -0.005 C 
ATOM     15  C   UNL     1     105.742  93.293 113.718  1.00  0.00    -0.026 C 
ATOM     16  C   UNL     1     105.516  94.352 112.924  1.00  0.00    -0.061 C 
ATOM     17  C   UNL     1     105.999  96.818 112.753  1.00  0.00     0.019 C 
ATOM     18  C   UNL     1     105.607  94.185 111.426  1.00  0.00     0.106 C 
ATOM     19  C   UNL     1     105.999  96.709 111.234  1.00  0.00     0.077 C 
ATOM     20  C   UNL     1     106.413  95.317 110.836  1.00  0.00     0.136 C 
ATOM     21  O   UNL     1     107.300  95.117 110.009  1.00  0.00    -0.299 OA
ATOM     22  C   UNL     1     103.201  95.955 117.955  1.00  0.00     0.015 C 
ATOM     23  C   UNL     1     103.644  95.966 113.160  1.00  0.00     0.016 C 
BRANCH   4  24
ATOM     24  O   UNL     1     106.628  95.970 119.604  1.00  0.00    -0.381 OA
ATOM     25  H   UNL     1     106.713  96.712 120.224  1.00  0.00     0.212 HD
ENDBRANCH   4  24
BRANCH  11  26
ATOM     26  O   UNL     1     103.691  97.485 115.531  1.00  0.00    -0.393 OA
ATOM     27  H   UNL     1     103.641  98.424 115.283  1.00  0.00     0.210 HD
ENDBRANCH  11  26
ENDBRANCH   2   4
ENDBRANCH   1   2
BRANCH   1  28
ATOM     28  O   UNL     1     103.785  98.715 120.192  1.00  0.00    -0.385 OA
ATOM     29  H   UNL     1     104.039  99.653 120.212  1.00  0.00     0.211 HD
ENDBRANCH   1  28
BRANCH   1  30
ATOM     30  C   UNL     1     105.266  98.325 122.028  1.00  0.00     0.162 C 
BRANCH  30  31
ATOM     31  C   UNL     1     106.701  98.784 122.115  1.00  0.00     0.306 C 
ATOM     32  O   UNL     1     107.076  99.735 122.789  1.00  0.00    -0.252 OA
BRANCH  31  33
ATOM     33  O   UNL     1     107.535  98.031 121.355  1.00  0.00    -0.481 OA
ATOM     34  H   UNL     1     108.157  98.584 120.836  1.00  0.00     0.296 HD
ENDBRANCH  31  33
ENDBRANCH  30  31
ENDBRANCH   1  30
TORSDOF 8
ENDMDL
MODEL 13
REMARK VINA RESULT:      -6.5      1.683      2.747
REMARK SMILES C[C@]12CCC(=O)CC1=CC[C@@H]1[C@@H]2[C@@H](O)C[C@@]2(C)[C@H]1CC[C@]2(O)C(=O)[C@@H](O)CC(=O)O
REMARK SMILES IDX 25 1 23 2 24 3 21 4 16 5 20 6 18 7 15 8 19 9 11 10 13 11
REMARK SMILES IDX 12 12 10 13 2 14 9 15 8 16 3 17 7 18 4 19 5 20 6 21 17 22
REMARK SMILES IDX 1 23 22 24 14 26 26 28 27 30 28 31 29 32 30 33
REMARK H PARENT 22 25 14 27 26 29 30 34
ROOT
ATOM      1  C   UNL     1     106.795  93.564 113.050  1.00  0.00     0.195 C 
ENDROOT
BRANCH   1   2
ATOM      2  C   UNL     1     105.333  93.195 113.266  1.00  0.00     0.193 C 
ATOM      3  O   UNL     1     104.826  92.203 112.743  1.00  0.00    -0.293 OA
BRANCH   2   4
ATOM      4  C   UNL     1     104.523  94.104 114.141  1.00  0.00     0.131 C 
ATOM      5  C   UNL     1     104.157  93.529 115.538  1.00  0.00     0.009 C 
ATOM      6  C   UNL     1     103.159  94.457 113.506  1.00  0.00     0.044 C 
ATOM      7  C   UNL     1     103.019  94.497 115.922  1.00  0.00     0.002 C 
ATOM      8  C   UNL     1     105.234  93.645 116.635  1.00  0.00     0.042 C 
ATOM      9  C   UNL     1     102.150  94.545 114.668  1.00  0.00     0.008 C 
ATOM     10  C   UNL     1     102.345  94.173 117.265  1.00  0.00     0.003 C 
ATOM     11  C   UNL     1     104.689  93.351 118.049  1.00  0.00     0.119 C 
ATOM     12  C   UNL     1     103.409  94.175 118.403  1.00  0.00     0.031 C 
ATOM     13  C   UNL     1     101.250  95.215 117.555  1.00  0.00     0.031 C 
ATOM     14  C   UNL     1     102.754  93.876 119.820  1.00  0.00    -0.005 C 
ATOM     15  C   UNL     1     100.826  95.285 118.984  1.00  0.00    -0.026 C 
ATOM     16  C   UNL     1     101.465  94.695 120.008  1.00  0.00    -0.061 C 
ATOM     17  C   UNL     1     103.782  94.300 120.913  1.00  0.00     0.019 C 
ATOM     18  C   UNL     1     100.892  94.812 121.400  1.00  0.00     0.106 C 
ATOM     19  C   UNL     1     103.225  94.310 122.331  1.00  0.00     0.077 C 
ATOM     20  C   UNL     1     101.989  95.170 122.373  1.00  0.00     0.136 C 
ATOM     21  O   UNL     1     101.845  96.057 123.212  1.00  0.00    -0.299 OA
ATOM     22  C   UNL     1     103.677  92.060 115.382  1.00  0.00     0.015 C 
ATOM     23  C   UNL     1     102.381  92.388 120.008  1.00  0.00     0.016 C 
BRANCH   4  24
ATOM     24  O   UNL     1     105.290  95.302 114.222  1.00  0.00    -0.381 OA
ATOM     25  H   UNL     1     105.562  95.564 113.328  1.00  0.00     0.212 HD
ENDBRANCH   4  24
BRANCH  11  26
ATOM     26  O   UNL     1     104.475  91.952 118.176  1.00  0.00    -0.393 OA
ATOM     27  H   UNL     1     104.774  91.684 119.061  1.00  0.00     0.210 HD
ENDBRANCH  11  26
ENDBRANCH   2   4
ENDBRANCH   1   2
BRANCH   1  28
ATOM     28  O   UNL     1     107.611  92.629 113.740  1.00  0.00    -0.385 OA
ATOM     29  H   UNL     1     107.543  92.809 114.693  1.00  0.00     0.211 HD
ENDBRANCH   1  28
BRANCH   1  30
ATOM     30  C   UNL     1     107.163  93.529 111.571  1.00  0.00     0.162 C 
BRANCH  30  31
ATOM     31  C   UNL     1     106.764  94.816 110.889  1.00  0.00     0.306 C 
ATOM     32  O   UNL     1     105.890  95.567 111.301  1.00  0.00    -0.252 OA
BRANCH  31  33
ATOM     33  O   UNL     1     107.480  95.048 109.761  1.00  0.00    -0.481 OA
ATOM     34  H   UNL     1     108.374  95.399 109.961  1.00  0.00     0.296 HD
ENDBRANCH  31  33
ENDBRANCH  30  31
ENDBRANCH   1  30
TORSDOF 8
ENDMDL
MODEL 14
REMARK VINA RESULT:      -6.4     14.578     17.142
REMARK SMILES C[C@]12CCC(=O)CC1=CC[C@@H]1[C@@H]2[C@@H](O)C[C@@]2(C)[C@H]1CC[C@]2(O)C(=O)[C@@H](O)CC(=O)O
REMARK SMILES IDX 25 1 23 2 24 3 21 4 16 5 20 6 18 7 15 8 19 9 11 10 13 11
REMARK SMILES IDX 12 12 10 13 2 14 9 15 8 16 3 17 7 18 4 19 5 20 6 21 17 22
REMARK SMILES IDX 1 23 22 24 14 26 26 28 27 30 28 31 29 32 30 33
REMARK H PARENT 22 25 14 27 26 29 30 34
ROOT
ATOM      1  C   UNL     1     121.686  96.591 121.260  1.00  0.00     0.195 C 
ENDROOT
BRANCH   1   2
ATOM      2  C   UNL     1     120.462  95.811 121.720  1.00  0.00     0.193 C 
ATOM      3  O   UNL     1     120.554  94.819 122.444  1.00  0.00    -0.293 OA
BRANCH   2   4
ATOM      4  C   UNL     1     119.125  96.296 121.245  1.00  0.00     0.131 C 
ATOM      5  C   UNL     1     118.994  97.838 121.093  1.00  0.00     0.009 C 
ATOM      6  C   UNL     1     117.989  95.913 122.220  1.00  0.00     0.044 C 
ATOM      7  C   UNL     1     117.457  97.959 121.040  1.00  0.00     0.002 C 
ATOM      8  C   UNL     1     119.536  98.449 119.785  1.00  0.00     0.042 C 
ATOM      9  C   UNL     1     116.989  97.087 122.203  1.00  0.00     0.008 C 
ATOM     10  C   UNL     1     116.943  99.405 120.961  1.00  0.00     0.003 C 
ATOM     11  C   UNL     1     119.087  99.910 119.570  1.00  0.00     0.119 C 
ATOM     12  C   UNL     1     117.543 100.109 119.707  1.00  0.00     0.031 C 
ATOM     13  C   UNL     1     115.406  99.401 120.887  1.00  0.00     0.031 C 
ATOM     14  C   UNL     1     117.015 101.602 119.563  1.00  0.00    -0.005 C 
ATOM     15  C   UNL     1     114.808 100.669 120.377  1.00  0.00    -0.026 C 
ATOM     16  C   UNL     1     115.495 101.666 119.795  1.00  0.00    -0.061 C 
ATOM     17  C   UNL     1     117.321 102.072 118.109  1.00  0.00     0.019 C 
ATOM     18  C   UNL     1     114.762 102.915 119.369  1.00  0.00     0.106 C 
ATOM     19  C   UNL     1     116.665 103.391 117.721  1.00  0.00     0.077 C 
ATOM     20  C   UNL     1     115.182 103.300 117.970  1.00  0.00     0.136 C 
ATOM     21  O   UNL     1     114.361 103.608 117.110  1.00  0.00    -0.299 OA
ATOM     22  C   UNL     1     119.616  98.535 122.334  1.00  0.00     0.015 C 
ATOM     23  C   UNL     1     117.672 102.573 120.571  1.00  0.00     0.016 C 
BRANCH   4  24
ATOM     24  O   UNL     1     118.905  95.601 120.022  1.00  0.00    -0.381 OA
ATOM     25  H   UNL     1     119.720  95.137 119.771  1.00  0.00     0.212 HD
ENDBRANCH   4  24
BRANCH  11  26
ATOM     26  O   UNL     1     119.814 100.748 120.458  1.00  0.00    -0.393 OA
ATOM     27  H   UNL     1     120.307 100.176 121.071  1.00  0.00     0.210 HD
ENDBRANCH  11  26
ENDBRANCH   2   4
ENDBRANCH   1   2
BRANCH   1  28
ATOM     28  O   UNL     1     122.682  96.522 122.269  1.00  0.00    -0.385 OA
ATOM     29  H   UNL     1     122.911  95.588 122.407  1.00  0.00     0.211 HD
ENDBRANCH   1  28
BRANCH   1  30
ATOM     30  C   UNL     1     122.260  96.011 119.972  1.00  0.00     0.162 C 
BRANCH  30  31
ATOM     31  C   UNL     1     123.617  95.397 120.219  1.00  0.00     0.306 C 
ATOM     32  O   UNL     1     123.823  94.192 120.283  1.00  0.00    -0.252 OA
BRANCH  31  33
ATOM     33  O   UNL     1     124.589  96.331 120.369  1.00  0.00    -0.481 OA
ATOM     34  H   UNL     1     124.491  96.828 121.209  1.00  0.00     0.296 HD
ENDBRANCH  31  33
ENDBRANCH  30  31
ENDBRANCH   1  30
TORSDOF 8
ENDMDL
MODEL 15
REMARK VINA RESULT:      -6.4      1.412      1.601
REMARK SMILES C[C@]12CCC(=O)CC1=CC[C@@H]1[C@@H]2[C@@H](O)C[C@@]2(C)[C@H]1CC[C@]2(O)C(=O)[C@@H](O)CC(=O)O
REMARK SMILES IDX 25 1 23 2 24 3 21 4 16 5 20 6 18 7 15 8 19 9 11 10 13 11
REMARK SMILES IDX 12 12 10 13 2 14 9 15 8 16 3 17 7 18 4 19 5 20 6 21 17 22
REMARK SMILES IDX 1 23 22 24 14 26 26 28 27 30 28 31 29 32 30 33
REMARK H PARENT 22 25 14 27 26 29 30 34
ROOT
ATOM      1  C   UNL     1     106.814  93.498 112.616  1.00  0.00     0.195 C 
ENDROOT
BRANCH   1   2
ATOM      2  C   UNL     1     105.450  93.263 113.250  1.00  0.00     0.193 C 
ATOM      3  O   UNL     1     104.405  93.356 112.606  1.00  0.00    -0.293 OA
BRANCH   2   4
ATOM      4  C   UNL     1     105.427  92.920 114.710  1.00  0.00     0.131 C 
ATOM      5  C   UNL     1     104.538  93.839 115.594  1.00  0.00     0.009 C 
ATOM      6  C   UNL     1     106.830  93.018 115.351  1.00  0.00     0.044 C 
ATOM      7  C   UNL     1     105.103  93.480 116.984  1.00  0.00     0.002 C 
ATOM      8  C   UNL     1     103.031  93.515 115.626  1.00  0.00     0.042 C 
ATOM      9  C   UNL     1     106.615  93.546 116.783  1.00  0.00     0.008 C 
ATOM     10  C   UNL     1     104.485  94.282 118.140  1.00  0.00     0.003 C 
ATOM     11  C   UNL     1     102.279  94.253 116.755  1.00  0.00     0.119 C 
ATOM     12  C   UNL     1     102.941  94.074 118.159  1.00  0.00     0.031 C 
ATOM     13  C   UNL     1     105.104  93.822 119.472  1.00  0.00     0.031 C 
ATOM     14  C   UNL     1     102.258  94.860 119.360  1.00  0.00    -0.005 C 
ATOM     15  C   UNL     1     104.308  94.188 120.681  1.00  0.00    -0.026 C 
ATOM     16  C   UNL     1     103.050  94.659 120.664  1.00  0.00    -0.061 C 
ATOM     17  C   UNL     1     100.824  94.277 119.549  1.00  0.00     0.019 C 
ATOM     18  C   UNL     1     102.385  95.033 121.967  1.00  0.00     0.106 C 
ATOM     19  C   UNL     1     100.115  94.745 120.814  1.00  0.00     0.077 C 
ATOM     20  C   UNL     1     100.989  94.460 122.008  1.00  0.00     0.136 C 
ATOM     21  O   UNL     1     100.561  93.870 122.997  1.00  0.00    -0.299 OA
ATOM     22  C   UNL     1     104.781  95.323 115.205  1.00  0.00     0.015 C 
ATOM     23  C   UNL     1     102.169  96.382 119.110  1.00  0.00     0.016 C 
BRANCH   4  24
ATOM     24  O   UNL     1     105.022  91.555 114.752  1.00  0.00    -0.381 OA
ATOM     25  H   UNL     1     105.440  91.126 115.516  1.00  0.00     0.212 HD
ENDBRANCH   4  24
BRANCH  11  26
ATOM     26  O   UNL     1     102.146  95.621 116.398  1.00  0.00    -0.393 OA
ATOM     27  H   UNL     1     101.888  96.114 117.195  1.00  0.00     0.210 HD
ENDBRANCH  11  26
ENDBRANCH   2   4
ENDBRANCH   1   2
BRANCH   1  28
ATOM     28  O   UNL     1     106.885  92.775 111.396  1.00  0.00    -0.385 OA
ATOM     29  H   UNL     1     106.088  92.975 110.877  1.00  0.00     0.211 HD
ENDBRANCH   1  28
BRANCH   1  30
ATOM     30  C   UNL     1     107.038  94.977 112.316  1.00  0.00     0.162 C 
BRANCH  30  31
ATOM     31  C   UNL     1     106.503  95.333 110.949  1.00  0.00     0.306 C 
ATOM     32  O   UNL     1     107.093  95.103 109.902  1.00  0.00    -0.252 OA
BRANCH  31  33
ATOM     33  O   UNL     1     105.293  95.943 111.008  1.00  0.00    -0.481 OA
ATOM     34  H   UNL     1     104.749  95.604 111.751  1.00  0.00     0.296 HD
ENDBRANCH  31  33
ENDBRANCH  30  31
ENDBRANCH   1  30
TORSDOF 8
ENDMDL
