MODEL 1
REMARK VINA RESULT:      -8.5      0.000      0.000
REMARK SMILES CN1C(=O)[C@]2(C(C#N)=C(N)Oc3n[nH]c(-c4ccccc4)c32)c2ccccc21
REMARK SMILES IDX 11 1 4 2 2 3 14 4 13 5 8 6 5 7 23 8 22 9 3 10 28 11 6 12
REMARK SMILES IDX 15 13 12 14 24 15 9 16 27 17 1 18 25 19 26 20 7 21 10 23
REMARK SMILES IDX 16 26 17 27 21 28 18 29 20 30 19 31
REMARK H PARENT 14 22 10 24 10 25
ROOT
ATOM      1  O   UNL     1     107.794  93.460 115.150  1.00  0.00    -0.420 OA
ATOM      2  O   UNL     1     106.381  97.076 113.345  1.00  0.00    -0.273 OA
ATOM      3  N   UNL     1     104.293  96.351 112.514  1.00  0.00    -0.314 N 
ATOM      4  N   UNL     1     105.408  94.628 117.234  1.00  0.00    -0.274 N 
ATOM      5  N   UNL     1     106.584  93.989 117.061  1.00  0.00    -0.136 NA
ATOM      6  N   UNL     1     107.182  94.120 110.397  1.00  0.00    -0.193 NA
ATOM      7  C   UNL     1     105.657  94.730 113.578  1.00  0.00     0.149 C 
ATOM      8  C   UNL     1     104.355  94.139 113.097  1.00  0.00     0.001 A 
ATOM      9  C   UNL     1     105.658  94.622 115.057  1.00  0.00     0.067 A 
ATOM     10  C   UNL     1     105.539  96.212 113.149  1.00  0.00     0.247 C 
ATOM     11  C   UNL     1     103.594  95.135 112.479  1.00  0.00     0.048 A 
ATOM     12  C   UNL     1     106.911  94.091 112.977  1.00  0.00     0.114 C 
ATOM     13  C   UNL     1     104.818  95.034 116.065  1.00  0.00     0.074 A 
ATOM     14  C   UNL     1     106.712  94.003 115.737  1.00  0.00     0.245 A 
ATOM     15  C   UNL     1     103.883  92.837 113.176  1.00  0.00     0.008 A 
ATOM     16  C   UNL     1     107.880  93.515 113.746  1.00  0.00     0.208 C 
ATOM     17  C   UNL     1     102.348  94.870 111.937  1.00  0.00     0.027 A 
ATOM     18  C   UNL     1     103.795  97.590 111.966  1.00  0.00     0.153 C 
ATOM     19  C   UNL     1     102.628  92.554 112.634  1.00  0.00     0.001 A 
ATOM     20  C   UNL     1     101.866  93.562 112.021  1.00  0.00     0.002 A 
ATOM     21  C   UNL     1     107.061  94.107 111.551  1.00  0.00     0.102 C 
ATOM     22  H   UNL     1     105.070  94.757 118.179  1.00  0.00     0.190 HD
ENDROOT
BRANCH  16  23
ATOM     23  N   UNL     1     109.019  92.934 113.255  1.00  0.00    -0.369 N 
ATOM     24  H   UNL     1     109.113  91.928 113.307  1.00  0.00     0.159 HD
ATOM     25  H   UNL     1     109.756  93.494 112.847  1.00  0.00     0.159 HD
ENDBRANCH  16  23
BRANCH  13  26
ATOM     26  C   UNL     1     103.566  95.748 116.051  1.00  0.00     0.000 A 
ATOM     27  C   UNL     1     102.360  95.045 116.036  1.00  0.00     0.010 A 
ATOM     28  C   UNL     1     103.558  97.143 116.052  1.00  0.00     0.010 A 
ATOM     29  C   UNL     1     101.149  95.736 116.021  1.00  0.00     0.001 A 
ATOM     30  C   UNL     1     102.346  97.835 116.036  1.00  0.00     0.001 A 
ATOM     31  C   UNL     1     101.142  97.132 116.021  1.00  0.00     0.000 A 
ENDBRANCH  13  26
TORSDOF 2
ENDMDL
MODEL 2
REMARK VINA RESULT:      -7.7     13.916     16.280
REMARK SMILES CN1C(=O)[C@]2(C(C#N)=C(N)Oc3n[nH]c(-c4ccccc4)c32)c2ccccc21
REMARK SMILES IDX 11 1 4 2 2 3 14 4 13 5 8 6 5 7 23 8 22 9 3 10 28 11 6 12
REMARK SMILES IDX 15 13 12 14 24 15 9 16 27 17 1 18 25 19 26 20 7 21 10 23
REMARK SMILES IDX 16 26 17 27 21 28 18 29 20 30 19 31
REMARK H PARENT 14 22 10 24 10 25
ROOT
ATOM      1  O   UNL     1     116.022 100.251 119.113  1.00  0.00    -0.420 OA
ATOM      2  O   UNL     1     119.255 100.551 121.905  1.00  0.00    -0.273 OA
ATOM      3  N   UNL     1     118.680  98.825 123.411  1.00  0.00    -0.314 N 
ATOM      4  N   UNL     1     118.024  97.614 118.452  1.00  0.00    -0.274 N 
ATOM      5  N   UNL     1     117.188  98.574 118.006  1.00  0.00    -0.136 NA
ATOM      6  N   UNL     1     115.574 101.666 123.718  1.00  0.00    -0.193 NA
ATOM      7  C   UNL     1     117.181  99.247 121.624  1.00  0.00     0.149 C 
ATOM      8  C   UNL     1     116.698  98.123 122.507  1.00  0.00     0.001 A 
ATOM      9  C   UNL     1     117.442  98.661 120.287  1.00  0.00     0.067 A 
ATOM     10  C   UNL     1     118.510  99.664 122.296  1.00  0.00     0.247 C 
ATOM     11  C   UNL     1     117.616  97.919 123.541  1.00  0.00     0.048 A 
ATOM     12  C   UNL     1     116.226 100.440 121.527  1.00  0.00     0.114 C 
ATOM     13  C   UNL     1     118.215  97.628 119.809  1.00  0.00     0.074 A 
ATOM     14  C   UNL     1     116.854  99.194 119.135  1.00  0.00     0.245 A 
ATOM     15  C   UNL     1     115.546  97.355 122.425  1.00  0.00     0.008 A 
ATOM     16  C   UNL     1     115.715 100.873 120.339  1.00  0.00     0.208 C 
ATOM     17  C   UNL     1     117.422  96.947 124.508  1.00  0.00     0.027 A 
ATOM     18  C   UNL     1     119.807  98.889 124.311  1.00  0.00     0.153 C 
ATOM     19  C   UNL     1     115.335  96.371 123.393  1.00  0.00     0.001 A 
ATOM     20  C   UNL     1     116.266  96.168 124.425  1.00  0.00     0.002 A 
ATOM     21  C   UNL     1     115.866 101.117 122.738  1.00  0.00     0.102 C 
ATOM     22  H   UNL     1     118.433  96.985 117.772  1.00  0.00     0.190 HD
ENDROOT
BRANCH  16  23
ATOM     23  N   UNL     1     114.861 101.935 120.202  1.00  0.00    -0.369 N 
ATOM     24  H   UNL     1     113.959 101.897 120.659  1.00  0.00     0.159 HD
ATOM     25  H   UNL     1     115.121 102.746 119.655  1.00  0.00     0.159 HD
ENDBRANCH  16  23
BRANCH  13  26
ATOM     26  C   UNL     1     119.089  96.689 120.466  1.00  0.00     0.000 A 
ATOM     27  C   UNL     1     118.576  95.493 120.972  1.00  0.00     0.010 A 
ATOM     28  C   UNL     1     120.448  96.975 120.598  1.00  0.00     0.010 A 
ATOM     29  C   UNL     1     119.422  94.585 121.609  1.00  0.00     0.001 A 
ATOM     30  C   UNL     1     121.295  96.066 121.235  1.00  0.00     0.001 A 
ATOM     31  C   UNL     1     120.782  94.871 121.740  1.00  0.00     0.000 A 
ENDBRANCH  13  26
TORSDOF 2
ENDMDL
MODEL 3
REMARK VINA RESULT:      -7.7      2.098      3.856
REMARK SMILES CN1C(=O)[C@]2(C(C#N)=C(N)Oc3n[nH]c(-c4ccccc4)c32)c2ccccc21
REMARK SMILES IDX 11 1 4 2 2 3 14 4 13 5 8 6 5 7 23 8 22 9 3 10 28 11 6 12
REMARK SMILES IDX 15 13 12 14 24 15 9 16 27 17 1 18 25 19 26 20 7 21 10 23
REMARK SMILES IDX 16 26 17 27 21 28 18 29 20 30 19 31
REMARK H PARENT 14 22 10 24 10 25
ROOT
ATOM      1  O   UNL     1     106.430  95.310 111.491  1.00  0.00    -0.420 OA
ATOM      2  O   UNL     1     102.422  93.891 111.993  1.00  0.00    -0.273 OA
ATOM      3  N   UNL     1     102.337  93.675 114.344  1.00  0.00    -0.314 N 
ATOM      4  N   UNL     1     104.692  97.944 112.693  1.00  0.00    -0.274 N 
ATOM      5  N   UNL     1     105.674  97.469 111.898  1.00  0.00    -0.136 NA
ATOM      6  N   UNL     1     105.240  90.893 113.063  1.00  0.00    -0.193 NA
ATOM      7  C   UNL     1     104.399  94.357 113.393  1.00  0.00     0.149 C 
ATOM      8  C   UNL     1     104.480  94.261 114.896  1.00  0.00     0.001 A 
ATOM      9  C   UNL     1     104.614  95.781 113.041  1.00  0.00     0.067 A 
ATOM     10  C   UNL     1     102.935  93.948 113.101  1.00  0.00     0.247 C 
ATOM     11  C   UNL     1     103.241  93.855 115.401  1.00  0.00     0.048 A 
ATOM     12  C   UNL     1     105.374  93.449 112.640  1.00  0.00     0.114 C 
ATOM     13  C   UNL     1     104.023  96.973 113.392  1.00  0.00     0.074 A 
ATOM     14  C   UNL     1     105.602  96.160 112.125  1.00  0.00     0.245 A 
ATOM     15  C   UNL     1     105.549  94.491 115.749  1.00  0.00     0.008 A 
ATOM     16  C   UNL     1     106.299  93.935 111.763  1.00  0.00     0.208 C 
ATOM     17  C   UNL     1     103.029  93.679 116.759  1.00  0.00     0.027 A 
ATOM     18  C   UNL     1     100.964  93.260 114.510  1.00  0.00     0.153 C 
ATOM     19  C   UNL     1     105.351  94.317 117.120  1.00  0.00     0.001 A 
ATOM     20  C   UNL     1     104.102  93.916 117.621  1.00  0.00     0.002 A 
ATOM     21  C   UNL     1     105.300  92.036 112.874  1.00  0.00     0.102 C 
ATOM     22  H   UNL     1     104.530  98.943 112.705  1.00  0.00     0.190 HD
ENDROOT
BRANCH  16  23
ATOM     23  N   UNL     1     107.190  93.163 111.065  1.00  0.00    -0.369 N 
ATOM     24  H   UNL     1     108.175  93.394 111.112  1.00  0.00     0.159 HD
ATOM     25  H   UNL     1     106.877  92.376 110.513  1.00  0.00     0.159 HD
ENDBRANCH  16  23
BRANCH  13  26
ATOM     26  C   UNL     1     102.930  97.287 114.278  1.00  0.00     0.000 A 
ATOM     27  C   UNL     1     103.185  97.627 115.608  1.00  0.00     0.010 A 
ATOM     28  C   UNL     1     101.618  97.251 113.808  1.00  0.00     0.010 A 
ATOM     29  C   UNL     1     102.128  97.930 116.466  1.00  0.00     0.001 A 
ATOM     30  C   UNL     1     100.559  97.554 114.666  1.00  0.00     0.001 A 
ATOM     31  C   UNL     1     100.814  97.894 115.994  1.00  0.00     0.000 A 
ENDBRANCH  13  26
TORSDOF 2
ENDMDL
MODEL 4
REMARK VINA RESULT:      -7.4      2.424      3.645
REMARK SMILES CN1C(=O)[C@]2(C(C#N)=C(N)Oc3n[nH]c(-c4ccccc4)c32)c2ccccc21
REMARK SMILES IDX 11 1 4 2 2 3 14 4 13 5 8 6 5 7 23 8 22 9 3 10 28 11 6 12
REMARK SMILES IDX 15 13 12 14 24 15 9 16 27 17 1 18 25 19 26 20 7 21 10 23
REMARK SMILES IDX 16 26 17 27 21 28 18 29 20 30 19 31
REMARK H PARENT 14 22 10 24 10 25
ROOT
ATOM      1  O   UNL     1     105.656  91.884 112.676  1.00  0.00    -0.420 OA
ATOM      2  O   UNL     1     106.919  94.262 116.006  1.00  0.00    -0.273 OA
ATOM      3  N   UNL     1     105.050  95.688 116.246  1.00  0.00    -0.314 N 
ATOM      4  N   UNL     1     103.856  90.770 115.306  1.00  0.00    -0.274 N 
ATOM      5  N   UNL     1     104.499  90.510 114.148  1.00  0.00    -0.136 NA
ATOM      6  N   UNL     1     106.688  96.606 112.467  1.00  0.00    -0.193 NA
ATOM      7  C   UNL     1     105.010  94.142 114.448  1.00  0.00     0.149 C 
ATOM      8  C   UNL     1     103.761  94.987 114.489  1.00  0.00     0.001 A 
ATOM      9  C   UNL     1     104.589  92.741 114.689  1.00  0.00     0.067 A 
ATOM     10  C   UNL     1     105.822  94.673 115.654  1.00  0.00     0.247 C 
ATOM     11  C   UNL     1     103.840  95.878 115.564  1.00  0.00     0.048 A 
ATOM     12  C   UNL     1     105.821  94.260 113.156  1.00  0.00     0.114 C 
ATOM     13  C   UNL     1     103.888  92.089 115.677  1.00  0.00     0.074 A 
ATOM     14  C   UNL     1     104.935  91.717 113.800  1.00  0.00     0.245 A 
ATOM     15  C   UNL     1     102.658  94.991 113.649  1.00  0.00     0.008 A 
ATOM     16  C   UNL     1     106.100  93.184 112.365  1.00  0.00     0.208 C 
ATOM     17  C   UNL     1     102.827  96.782 115.837  1.00  0.00     0.027 A 
ATOM     18  C   UNL     1     105.455  96.440 117.409  1.00  0.00     0.153 C 
ATOM     19  C   UNL     1     101.628  95.896 113.911  1.00  0.00     0.001 A 
ATOM     20  C   UNL     1     101.711  96.784 114.997  1.00  0.00     0.002 A 
ATOM     21  C   UNL     1     106.300  95.557 112.775  1.00  0.00     0.102 C 
ATOM     22  H   UNL     1     103.421  89.997 115.794  1.00  0.00     0.190 HD
ENDROOT
BRANCH  16  23
ATOM     23  N   UNL     1     106.823  93.240 111.203  1.00  0.00    -0.369 N 
ATOM     24  H   UNL     1     106.722  92.490 110.531  1.00  0.00     0.159 HD
ATOM     25  H   UNL     1     107.446  94.014 111.013  1.00  0.00     0.159 HD
ENDBRANCH  16  23
BRANCH  13  26
ATOM     26  C   UNL     1     103.270  92.555 116.894  1.00  0.00     0.000 A 
ATOM     27  C   UNL     1     101.935  92.962 116.888  1.00  0.00     0.010 A 
ATOM     28  C   UNL     1     104.007  92.599 118.077  1.00  0.00     0.010 A 
ATOM     29  C   UNL     1     101.339  93.414 118.065  1.00  0.00     0.001 A 
ATOM     30  C   UNL     1     103.410  93.051 119.255  1.00  0.00     0.001 A 
ATOM     31  C   UNL     1     102.076  93.458 119.249  1.00  0.00     0.000 A 
ENDBRANCH  13  26
TORSDOF 2
ENDMDL
MODEL 5
REMARK VINA RESULT:      -7.3     13.220     16.281
REMARK SMILES CN1C(=O)[C@]2(C(C#N)=C(N)Oc3n[nH]c(-c4ccccc4)c32)c2ccccc21
REMARK SMILES IDX 11 1 4 2 2 3 14 4 13 5 8 6 5 7 23 8 22 9 3 10 28 11 6 12
REMARK SMILES IDX 15 13 12 14 24 15 9 16 27 17 1 18 25 19 26 20 7 21 10 23
REMARK SMILES IDX 16 26 17 27 21 28 18 29 20 30 19 31
REMARK H PARENT 14 22 10 24 10 25
ROOT
ATOM      1  O   UNL     1     114.626  95.384 122.206  1.00  0.00    -0.420 OA
ATOM      2  O   UNL     1     116.328  98.564 119.898  1.00  0.00    -0.273 OA
ATOM      3  N   UNL     1     118.081  99.240 121.330  1.00  0.00    -0.314 N 
ATOM      4  N   UNL     1     117.503  94.139 120.951  1.00  0.00    -0.274 N 
ATOM      5  N   UNL     1     116.221  93.943 121.322  1.00  0.00    -0.136 NA
ATOM      6  N   UNL     1     114.523 100.059 123.445  1.00  0.00    -0.193 NA
ATOM      7  C   UNL     1     116.654  97.513 122.106  1.00  0.00     0.149 C 
ATOM      8  C   UNL     1     117.728  97.846 123.111  1.00  0.00     0.001 A 
ATOM      9  C   UNL     1     116.887  96.113 121.676  1.00  0.00     0.067 A 
ATOM     10  C   UNL     1     116.957  98.489 120.944  1.00  0.00     0.247 C 
ATOM     11  C   UNL     1     118.536  98.868 122.604  1.00  0.00     0.048 A 
ATOM     12  C   UNL     1     115.222  97.704 122.612  1.00  0.00     0.114 C 
ATOM     13  C   UNL     1     117.947  95.423 121.135  1.00  0.00     0.074 A 
ATOM     14  C   UNL     1     115.872  95.153 121.752  1.00  0.00     0.245 A 
ATOM     15  C   UNL     1     117.968  97.316 124.370  1.00  0.00     0.008 A 
ATOM     16  C   UNL     1     114.313  96.687 122.637  1.00  0.00     0.208 C 
ATOM     17  C   UNL     1     119.604  99.378 123.322  1.00  0.00     0.027 A 
ATOM     18  C   UNL     1     118.689 100.266 120.517  1.00  0.00     0.153 C 
ATOM     19  C   UNL     1     119.041  97.819 125.107  1.00  0.00     0.001 A 
ATOM     20  C   UNL     1     119.853  98.841 124.588  1.00  0.00     0.002 A 
ATOM     21  C   UNL     1     114.836  99.006 123.072  1.00  0.00     0.102 C 
ATOM     22  H   UNL     1     118.016  93.352 120.574  1.00  0.00     0.190 HD
ENDROOT
BRANCH  16  23
ATOM     23  N   UNL     1     113.022  96.809 123.078  1.00  0.00    -0.369 N 
ATOM     24  H   UNL     1     112.693  96.182 123.801  1.00  0.00     0.159 HD
ATOM     25  H   UNL     1     112.404  97.511 122.693  1.00  0.00     0.159 HD
ENDBRANCH  16  23
BRANCH  13  26
ATOM     26  C   UNL     1     119.285  95.826 120.780  1.00  0.00     0.000 A 
ATOM     27  C   UNL     1     119.520  96.477 119.568  1.00  0.00     0.010 A 
ATOM     28  C   UNL     1     120.346  95.564 121.647  1.00  0.00     0.010 A 
ATOM     29  C   UNL     1     120.814  96.865 119.224  1.00  0.00     0.001 A 
ATOM     30  C   UNL     1     121.641  95.952 121.303  1.00  0.00     0.001 A 
ATOM     31  C   UNL     1     121.876  96.603 120.092  1.00  0.00     0.000 A 
ENDBRANCH  13  26
TORSDOF 2
ENDMDL
MODEL 6
REMARK VINA RESULT:      -7.3      2.350      4.995
REMARK SMILES CN1C(=O)[C@]2(C(C#N)=C(N)Oc3n[nH]c(-c4ccccc4)c32)c2ccccc21
REMARK SMILES IDX 11 1 4 2 2 3 14 4 13 5 8 6 5 7 23 8 22 9 3 10 28 11 6 12
REMARK SMILES IDX 15 13 12 14 24 15 9 16 27 17 1 18 25 19 26 20 7 21 10 23
REMARK SMILES IDX 16 26 17 27 21 28 18 29 20 30 19 31
REMARK H PARENT 14 22 10 24 10 25
ROOT
ATOM      1  O   UNL     1     104.811  92.756 117.926  1.00  0.00    -0.420 OA
ATOM      2  O   UNL     1     103.473  91.673 114.005  1.00  0.00    -0.273 OA
ATOM      3  N   UNL     1     102.611  93.742 113.262  1.00  0.00    -0.314 N 
ATOM      4  N   UNL     1     107.070  94.099 115.807  1.00  0.00    -0.274 N 
ATOM      5  N   UNL     1     106.798  93.518 116.994  1.00  0.00    -0.136 NA
ATOM      6  N   UNL     1     100.182  92.619 116.525  1.00  0.00    -0.193 NA
ATOM      7  C   UNL     1     103.446  93.651 115.478  1.00  0.00     0.149 C 
ATOM      8  C   UNL     1     102.930  95.024 115.130  1.00  0.00     0.001 A 
ATOM      9  C   UNL     1     104.902  93.789 115.725  1.00  0.00     0.067 A 
ATOM     10  C   UNL     1     103.196  92.851 114.177  1.00  0.00     0.247 C 
ATOM     11  C   UNL     1     102.449  95.020 113.817  1.00  0.00     0.048 A 
ATOM     12  C   UNL     1     102.747  92.985 116.666  1.00  0.00     0.114 C 
ATOM     13  C   UNL     1     105.970  94.276 115.007  1.00  0.00     0.074 A 
ATOM     14  C   UNL     1     105.482  93.339 116.916  1.00  0.00     0.245 A 
ATOM     15  C   UNL     1     102.866  96.176 115.900  1.00  0.00     0.008 A 
ATOM     16  C   UNL     1     103.421  92.583 117.781  1.00  0.00     0.208 C 
ATOM     17  C   UNL     1     101.909  96.153 113.234  1.00  0.00     0.027 A 
ATOM     18  C   UNL     1     102.223  93.385 111.918  1.00  0.00     0.153 C 
ATOM     19  C   UNL     1     102.324  97.328 115.327  1.00  0.00     0.001 A 
ATOM     20  C   UNL     1     101.849  97.317 114.004  1.00  0.00     0.002 A 
ATOM     21  C   UNL     1     101.329  92.783 116.588  1.00  0.00     0.102 C 
ATOM     22  H   UNL     1     108.032  94.343 115.606  1.00  0.00     0.190 HD
ENDROOT
BRANCH  16  23
ATOM     23  N   UNL     1     102.840  91.982 118.866  1.00  0.00    -0.369 N 
ATOM     24  H   UNL     1     103.434  91.649 119.615  1.00  0.00     0.159 HD
ATOM     25  H   UNL     1     101.836  91.870 118.924  1.00  0.00     0.159 HD
ENDBRANCH  16  23
BRANCH  13  26
ATOM     26  C   UNL     1     106.069  94.864 113.695  1.00  0.00     0.000 A 
ATOM     27  C   UNL     1     106.081  96.253 113.550  1.00  0.00     0.010 A 
ATOM     28  C   UNL     1     106.150  94.046 112.568  1.00  0.00     0.010 A 
ATOM     29  C   UNL     1     106.174  96.821 112.280  1.00  0.00     0.001 A 
ATOM     30  C   UNL     1     106.243  94.615 111.297  1.00  0.00     0.001 A 
ATOM     31  C   UNL     1     106.256  96.002 111.153  1.00  0.00     0.000 A 
ENDBRANCH  13  26
TORSDOF 2
ENDMDL
MODEL 7
REMARK VINA RESULT:      -7.3     18.697     21.322
REMARK SMILES CN1C(=O)[C@]2(C(C#N)=C(N)Oc3n[nH]c(-c4ccccc4)c32)c2ccccc21
REMARK SMILES IDX 11 1 4 2 2 3 14 4 13 5 8 6 5 7 23 8 22 9 3 10 28 11 6 12
REMARK SMILES IDX 15 13 12 14 24 15 9 16 27 17 1 18 25 19 26 20 7 21 10 23
REMARK SMILES IDX 16 26 17 27 21 28 18 29 20 30 19 31
REMARK H PARENT 14 22 10 24 10 25
ROOT
ATOM      1  O   UNL     1     120.715  86.780 111.503  1.00  0.00    -0.420 OA
ATOM      2  O   UNL     1     124.080  84.253 110.714  1.00  0.00    -0.273 OA
ATOM      3  N   UNL     1     123.292  83.069 108.828  1.00  0.00    -0.314 N 
ATOM      4  N   UNL     1     122.206  88.100 108.776  1.00  0.00    -0.274 N 
ATOM      5  N   UNL     1     121.525  88.282 109.927  1.00  0.00    -0.136 NA
ATOM      6  N   UNL     1     120.732  81.968 111.997  1.00  0.00    -0.193 NA
ATOM      7  C   UNL     1     121.803  84.613 109.837  1.00  0.00     0.149 C 
ATOM      8  C   UNL     1     121.179  83.930 108.646  1.00  0.00     0.001 A 
ATOM      9  C   UNL     1     121.898  86.055 109.504  1.00  0.00     0.067 A 
ATOM     10  C   UNL     1     123.215  83.982 109.894  1.00  0.00     0.247 C 
ATOM     11  C   UNL     1     122.098  83.032 108.094  1.00  0.00     0.048 A 
ATOM     12  C   UNL     1     121.062  84.400 111.159  1.00  0.00     0.114 C 
ATOM     13  C   UNL     1     122.461  86.785 108.482  1.00  0.00     0.074 A 
ATOM     14  C   UNL     1     121.355  87.031 110.347  1.00  0.00     0.245 A 
ATOM     15  C   UNL     1     119.911  84.066 108.102  1.00  0.00     0.008 A 
ATOM     16  C   UNL     1     120.576  85.437 111.902  1.00  0.00     0.208 C 
ATOM     17  C   UNL     1     121.787  82.260 106.987  1.00  0.00     0.027 A 
ATOM     18  C   UNL     1     124.455  82.268 108.530  1.00  0.00     0.153 C 
ATOM     19  C   UNL     1     119.582  83.294 106.986  1.00  0.00     0.001 A 
ATOM     20  C   UNL     1     120.513  82.399 106.432  1.00  0.00     0.002 A 
ATOM     21  C   UNL     1     120.880  83.055 111.622  1.00  0.00     0.102 C 
ATOM     22  H   UNL     1     122.470  88.919 108.244  1.00  0.00     0.190 HD
ENDROOT
BRANCH  16  23
ATOM     23  N   UNL     1     119.909  85.296 113.090  1.00  0.00    -0.369 N 
ATOM     24  H   UNL     1     119.745  84.364 113.448  1.00  0.00     0.159 HD
ATOM     25  H   UNL     1     119.585  86.104 113.604  1.00  0.00     0.159 HD
ENDBRANCH  16  23
BRANCH  13  26
ATOM     26  C   UNL     1     123.193  86.395 107.303  1.00  0.00     0.000 A 
ATOM     27  C   UNL     1     122.562  86.394 106.057  1.00  0.00     0.010 A 
ATOM     28  C   UNL     1     124.532  86.019 107.406  1.00  0.00     0.010 A 
ATOM     29  C   UNL     1     123.270  86.016 104.917  1.00  0.00     0.001 A 
ATOM     30  C   UNL     1     125.240  85.640 106.265  1.00  0.00     0.001 A 
ATOM     31  C   UNL     1     124.610  85.639 105.021  1.00  0.00     0.000 A 
ENDBRANCH  13  26
TORSDOF 2
ENDMDL
MODEL 8
REMARK VINA RESULT:      -7.1      1.685      1.928
REMARK SMILES CN1C(=O)[C@]2(C(C#N)=C(N)Oc3n[nH]c(-c4ccccc4)c32)c2ccccc21
REMARK SMILES IDX 11 1 4 2 2 3 14 4 13 5 8 6 5 7 23 8 22 9 3 10 28 11 6 12
REMARK SMILES IDX 15 13 12 14 24 15 9 16 27 17 1 18 25 19 26 20 7 21 10 23
REMARK SMILES IDX 16 26 17 27 21 28 18 29 20 30 19 31
REMARK H PARENT 14 22 10 24 10 25
ROOT
ATOM      1  O   UNL     1     106.961  92.493 114.257  1.00  0.00    -0.420 OA
ATOM      2  O   UNL     1     105.439  96.422 115.016  1.00  0.00    -0.273 OA
ATOM      3  N   UNL     1     103.319  96.266 113.987  1.00  0.00    -0.314 N 
ATOM      4  N   UNL     1     104.667  92.106 116.704  1.00  0.00    -0.274 N 
ATOM      5  N   UNL     1     105.838  91.737 116.144  1.00  0.00    -0.136 NA
ATOM      6  N   UNL     1     106.121  95.836 110.862  1.00  0.00    -0.193 NA
ATOM      7  C   UNL     1     104.743  94.377 113.826  1.00  0.00     0.149 C 
ATOM      8  C   UNL     1     103.425  94.145 113.132  1.00  0.00     0.001 A 
ATOM      9  C   UNL     1     104.815  93.409 114.947  1.00  0.00     0.067 A 
ATOM     10  C   UNL     1     104.595  95.818 114.371  1.00  0.00     0.247 C 
ATOM     11  C   UNL     1     102.628  95.287 113.256  1.00  0.00     0.048 A 
ATOM     12  C   UNL     1     105.972  94.266 112.921  1.00  0.00     0.114 C 
ATOM     13  C   UNL     1     104.019  93.109 116.029  1.00  0.00     0.074 A 
ATOM     14  C   UNL     1     105.904  92.542 115.088  1.00  0.00     0.245 A 
ATOM     15  C   UNL     1     102.966  93.038 112.433  1.00  0.00     0.008 A 
ATOM     16  C   UNL     1     106.980  93.378 113.161  1.00  0.00     0.208 C 
ATOM     17  C   UNL     1     101.359  95.356 112.706  1.00  0.00     0.027 A 
ATOM     18  C   UNL     1     102.787  97.570 114.305  1.00  0.00     0.153 C 
ATOM     19  C   UNL     1     101.689  93.091 111.872  1.00  0.00     0.001 A 
ATOM     20  C   UNL     1     100.891  94.240 112.007  1.00  0.00     0.002 A 
ATOM     21  C   UNL     1     106.054  95.133 111.783  1.00  0.00     0.102 C 
ATOM     22  H   UNL     1     104.373  91.635 117.550  1.00  0.00     0.190 HD
ENDROOT
BRANCH  16  23
ATOM     23  N   UNL     1     108.099  93.243 112.382  1.00  0.00    -0.369 N 
ATOM     24  H   UNL     1     108.963  93.669 112.694  1.00  0.00     0.159 HD
ATOM     25  H   UNL     1     108.069  92.729 111.512  1.00  0.00     0.159 HD
ENDBRANCH  16  23
BRANCH  13  26
ATOM     26  C   UNL     1     102.763  93.648 116.486  1.00  0.00     0.000 A 
ATOM     27  C   UNL     1     101.562  93.063 116.080  1.00  0.00     0.010 A 
ATOM     28  C   UNL     1     102.746  94.756 117.335  1.00  0.00     0.010 A 
ATOM     29  C   UNL     1     100.347  93.586 116.522  1.00  0.00     0.001 A 
ATOM     30  C   UNL     1     101.530  95.279 117.776  1.00  0.00     0.001 A 
ATOM     31  C   UNL     1     100.331  94.694 117.370  1.00  0.00     0.000 A 
ENDBRANCH  13  26
TORSDOF 2
ENDMDL
MODEL 9
REMARK VINA RESULT:      -7.1     13.290     15.833
REMARK SMILES CN1C(=O)[C@]2(C(C#N)=C(N)Oc3n[nH]c(-c4ccccc4)c32)c2ccccc21
REMARK SMILES IDX 11 1 4 2 2 3 14 4 13 5 8 6 5 7 23 8 22 9 3 10 28 11 6 12
REMARK SMILES IDX 15 13 12 14 24 15 9 16 27 17 1 18 25 19 26 20 7 21 10 23
REMARK SMILES IDX 16 26 17 27 21 28 18 29 20 30 19 31
REMARK H PARENT 14 22 10 24 10 25
ROOT
ATOM      1  O   UNL     1     118.891  97.847 118.741  1.00  0.00    -0.420 OA
ATOM      2  O   UNL     1     116.770  95.561 121.675  1.00  0.00    -0.273 OA
ATOM      3  N   UNL     1     117.098  96.910 123.587  1.00  0.00    -0.314 N 
ATOM      4  N   UNL     1     116.024  99.543 119.296  1.00  0.00    -0.274 N 
ATOM      5  N   UNL     1     116.990  99.149 118.440  1.00  0.00    -0.136 NA
ATOM      6  N   UNL     1     120.944  95.569 122.483  1.00  0.00    -0.193 NA
ATOM      7  C   UNL     1     118.144  97.607 121.577  1.00  0.00     0.149 C 
ATOM      8  C   UNL     1     118.431  98.554 122.715  1.00  0.00     0.001 A 
ATOM      9  C   UNL     1     117.370  98.370 120.568  1.00  0.00     0.067 A 
ATOM     10  C   UNL     1     117.248  96.534 122.240  1.00  0.00     0.247 C 
ATOM     11  C   UNL     1     117.793  98.094 123.871  1.00  0.00     0.048 A 
ATOM     12  C   UNL     1     119.384  96.964 120.950  1.00  0.00     0.114 C 
ATOM     13  C   UNL     1     116.201  99.096 120.580  1.00  0.00     0.074 A 
ATOM     14  C   UNL     1     117.788  98.439 119.234  1.00  0.00     0.245 A 
ATOM     15  C   UNL     1     119.199  99.708 122.744  1.00  0.00     0.008 A 
ATOM     16  C   UNL     1     119.690  97.100 119.628  1.00  0.00     0.208 C 
ATOM     17  C   UNL     1     117.890  98.771 125.076  1.00  0.00     0.027 A 
ATOM     18  C   UNL     1     116.326  96.168 124.554  1.00  0.00     0.153 C 
ATOM     19  C   UNL     1     119.307 100.402 123.951  1.00  0.00     0.001 A 
ATOM     20  C   UNL     1     118.657  99.937 125.107  1.00  0.00     0.002 A 
ATOM     21  C   UNL     1     120.246  96.193 121.797  1.00  0.00     0.102 C 
ATOM     22  H   UNL     1     115.269 100.111 118.934  1.00  0.00     0.190 HD
ENDROOT
BRANCH  16  23
ATOM     23  N   UNL     1     120.785  96.543 119.022  1.00  0.00    -0.369 N 
ATOM     24  H   UNL     1     121.690  96.647 119.463  1.00  0.00     0.159 HD
ATOM     25  H   UNL     1     120.698  96.035 118.152  1.00  0.00     0.159 HD
ENDBRANCH  16  23
BRANCH  13  26
ATOM     26  C   UNL     1     115.261  99.400 121.630  1.00  0.00     0.000 A 
ATOM     27  C   UNL     1     115.395 100.578 122.368  1.00  0.00     0.010 A 
ATOM     28  C   UNL     1     114.218  98.518 121.910  1.00  0.00     0.010 A 
ATOM     29  C   UNL     1     114.487 100.871 123.385  1.00  0.00     0.001 A 
ATOM     30  C   UNL     1     113.309  98.811 122.927  1.00  0.00     0.001 A 
ATOM     31  C   UNL     1     113.443  99.988 123.664  1.00  0.00     0.000 A 
ENDBRANCH  13  26
TORSDOF 2
ENDMDL
MODEL 10
REMARK VINA RESULT:      -7.1     13.638     15.665
REMARK SMILES CN1C(=O)[C@]2(C(C#N)=C(N)Oc3n[nH]c(-c4ccccc4)c32)c2ccccc21
REMARK SMILES IDX 11 1 4 2 2 3 14 4 13 5 8 6 5 7 23 8 22 9 3 10 28 11 6 12
REMARK SMILES IDX 15 13 12 14 24 15 9 16 27 17 1 18 25 19 26 20 7 21 10 23
REMARK SMILES IDX 16 26 17 27 21 28 18 29 20 30 19 31
REMARK H PARENT 14 22 10 24 10 25
ROOT
ATOM      1  O   UNL     1     117.642  99.510 117.110  1.00  0.00    -0.420 OA
ATOM      2  O   UNL     1     120.004 100.631 120.501  1.00  0.00    -0.273 OA
ATOM      3  N   UNL     1     118.310 100.944 122.117  1.00  0.00    -0.314 N 
ATOM      4  N   UNL     1     117.649  96.805 119.130  1.00  0.00    -0.274 N 
ATOM      5  N   UNL     1     117.646  97.319 117.883  1.00  0.00    -0.136 NA
ATOM      6  N   UNL     1     117.613 103.886 119.174  1.00  0.00    -0.193 NA
ATOM      7  C   UNL     1     117.620 100.385 119.920  1.00  0.00     0.149 C 
ATOM      8  C   UNL     1     116.445 100.553 120.850  1.00  0.00     0.001 A 
ATOM      9  C   UNL     1     117.623  98.967 119.483  1.00  0.00     0.067 A 
ATOM     10  C   UNL     1     118.831 100.664 120.842  1.00  0.00     0.247 C 
ATOM     11  C   UNL     1     116.909 100.883 122.127  1.00  0.00     0.048 A 
ATOM     12  C   UNL     1     117.626 101.332 118.717  1.00  0.00     0.114 C 
ATOM     13  C   UNL     1     117.644  97.750 120.123  1.00  0.00     0.074 A 
ATOM     14  C   UNL     1     117.634  98.627 118.126  1.00  0.00     0.245 A 
ATOM     15  C   UNL     1     115.085 100.447 120.599  1.00  0.00     0.008 A 
ATOM     16  C   UNL     1     117.640 100.882 117.430  1.00  0.00     0.208 C 
ATOM     17  C   UNL     1     116.042 101.102 123.184  1.00  0.00     0.027 A 
ATOM     18  C   UNL     1     119.118 101.257 123.272  1.00  0.00     0.153 C 
ATOM     19  C   UNL     1     114.198 100.665 121.655  1.00  0.00     0.001 A 
ATOM     20  C   UNL     1     114.672 100.989 122.937  1.00  0.00     0.002 A 
ATOM     21  C   UNL     1     117.619 102.744 118.970  1.00  0.00     0.102 C 
ATOM     22  H   UNL     1     117.662  95.798 119.230  1.00  0.00     0.190 HD
ENDROOT
BRANCH  16  23
ATOM     23  N   UNL     1     117.648 101.690 116.324  1.00  0.00    -0.369 N 
ATOM     24  H   UNL     1     116.781 102.122 116.031  1.00  0.00     0.159 HD
ATOM     25  H   UNL     1     118.501 101.855 115.805  1.00  0.00     0.159 HD
ENDBRANCH  16  23
BRANCH  13  26
ATOM     26  C   UNL     1     117.664  97.390 121.519  1.00  0.00     0.000 A 
ATOM     27  C   UNL     1     116.468  97.144 122.195  1.00  0.00     0.010 A 
ATOM     28  C   UNL     1     118.880  97.289 122.195  1.00  0.00     0.010 A 
ATOM     29  C   UNL     1     116.488  96.797 123.545  1.00  0.00     0.001 A 
ATOM     30  C   UNL     1     118.900  96.942 123.547  1.00  0.00     0.001 A 
ATOM     31  C   UNL     1     117.705  96.696 124.222  1.00  0.00     0.000 A 
ENDBRANCH  13  26
TORSDOF 2
ENDMDL
MODEL 11
REMARK VINA RESULT:      -7.0      1.996      3.642
REMARK SMILES CN1C(=O)[C@]2(C(C#N)=C(N)Oc3n[nH]c(-c4ccccc4)c32)c2ccccc21
REMARK SMILES IDX 11 1 4 2 2 3 14 4 13 5 8 6 5 7 23 8 22 9 3 10 28 11 6 12
REMARK SMILES IDX 15 13 12 14 24 15 9 16 27 17 1 18 25 19 26 20 7 21 10 23
REMARK SMILES IDX 16 26 17 27 21 28 18 29 20 30 19 31
REMARK H PARENT 14 22 10 24 10 25
ROOT
ATOM      1  O   UNL     1     106.944  94.733 112.342  1.00  0.00    -0.420 OA
ATOM      2  O   UNL     1     105.616  97.446 115.377  1.00  0.00    -0.273 OA
ATOM      3  N   UNL     1     103.569  96.436 115.986  1.00  0.00    -0.314 N 
ATOM      4  N   UNL     1     107.435  93.116 115.265  1.00  0.00    -0.274 N 
ATOM      5  N   UNL     1     107.836  93.375 114.003  1.00  0.00    -0.136 NA
ATOM      6  N   UNL     1     103.085  97.627 111.966  1.00  0.00    -0.193 NA
ATOM      7  C   UNL     1     104.790  95.430 114.221  1.00  0.00     0.149 C 
ATOM      8  C   UNL     1     103.509  94.689 114.510  1.00  0.00     0.001 A 
ATOM      9  C   UNL     1     105.904  94.500 114.530  1.00  0.00     0.067 A 
ATOM     10  C   UNL     1     104.756  96.586 115.249  1.00  0.00     0.247 C 
ATOM     11  C   UNL     1     102.831  95.324 115.554  1.00  0.00     0.048 A 
ATOM     12  C   UNL     1     104.907  95.976 112.796  1.00  0.00     0.114 C 
ATOM     13  C   UNL     1     106.288  93.771 115.631  1.00  0.00     0.074 A 
ATOM     14  C   UNL     1     106.895  94.217 113.583  1.00  0.00     0.245 A 
ATOM     15  C   UNL     1     102.971  93.565 113.900  1.00  0.00     0.008 A 
ATOM     16  C   UNL     1     105.926  95.628 111.959  1.00  0.00     0.208 C 
ATOM     17  C   UNL     1     101.615  94.858 116.026  1.00  0.00     0.027 A 
ATOM     18  C   UNL     1     103.160  97.318 117.053  1.00  0.00     0.153 C 
ATOM     19  C   UNL     1     101.745  93.082 114.364  1.00  0.00     0.001 A 
ATOM     20  C   UNL     1     101.074  93.723 115.419  1.00  0.00     0.002 A 
ATOM     21  C   UNL     1     103.900  96.888 112.337  1.00  0.00     0.102 C 
ATOM     22  H   UNL     1     107.997  92.486 115.823  1.00  0.00     0.190 HD
ENDROOT
BRANCH  16  23
ATOM     23  N   UNL     1     106.074  96.091 110.679  1.00  0.00    -0.369 N 
ATOM     24  H   UNL     1     106.606  95.538 110.019  1.00  0.00     0.159 HD
ATOM     25  H   UNL     1     105.662  96.969 110.391  1.00  0.00     0.159 HD
ENDBRANCH  16  23
BRANCH  13  26
ATOM     26  C   UNL     1     105.718  93.633 116.948  1.00  0.00     0.000 A 
ATOM     27  C   UNL     1     104.690  92.714 117.171  1.00  0.00     0.010 A 
ATOM     28  C   UNL     1     106.191  94.418 117.999  1.00  0.00     0.010 A 
ATOM     29  C   UNL     1     104.138  92.581 118.445  1.00  0.00     0.001 A 
ATOM     30  C   UNL     1     105.638  94.285 119.274  1.00  0.00     0.001 A 
ATOM     31  C   UNL     1     104.612  93.367 119.497  1.00  0.00     0.000 A 
ENDBRANCH  13  26
TORSDOF 2
ENDMDL
MODEL 12
REMARK VINA RESULT:      -7.0     18.886     21.141
REMARK SMILES CN1C(=O)[C@]2(C(C#N)=C(N)Oc3n[nH]c(-c4ccccc4)c32)c2ccccc21
REMARK SMILES IDX 11 1 4 2 2 3 14 4 13 5 8 6 5 7 23 8 22 9 3 10 28 11 6 12
REMARK SMILES IDX 15 13 12 14 24 15 9 16 27 17 1 18 25 19 26 20 7 21 10 23
REMARK SMILES IDX 16 26 17 27 21 28 18 29 20 30 19 31
REMARK H PARENT 14 22 10 24 10 25
ROOT
ATOM      1  O   UNL     1     120.823  84.095 105.000  1.00  0.00    -0.420 OA
ATOM      2  O   UNL     1     123.716  82.832 107.892  1.00  0.00    -0.273 OA
ATOM      3  N   UNL     1     123.807  84.748 109.271  1.00  0.00    -0.314 N 
ATOM      4  N   UNL     1     119.056  83.421 107.797  1.00  0.00    -0.274 N 
ATOM      5  N   UNL     1     119.138  83.421 106.450  1.00  0.00    -0.136 NA
ATOM      6  N   UNL     1     125.240  86.002 105.505  1.00  0.00    -0.193 NA
ATOM      7  C   UNL     1     122.404  84.852 107.362  1.00  0.00     0.149 C 
ATOM      8  C   UNL     1     122.369  86.135 108.154  1.00  0.00     0.001 A 
ATOM      9  C   UNL     1     121.039  84.275 107.417  1.00  0.00     0.067 A 
ATOM     10  C   UNL     1     123.389  83.976 108.173  1.00  0.00     0.247 C 
ATOM     11  C   UNL     1     123.212  86.018 109.263  1.00  0.00     0.048 A 
ATOM     12  C   UNL     1     122.881  85.005 105.916  1.00  0.00     0.114 C 
ATOM     13  C   UNL     1     120.172  83.915 108.423  1.00  0.00     0.074 A 
ATOM     14  C   UNL     1     120.347  83.938 106.248  1.00  0.00     0.245 A 
ATOM     15  C   UNL     1     121.674  87.311 107.917  1.00  0.00     0.008 A 
ATOM     16  C   UNL     1     122.114  84.637 104.849  1.00  0.00     0.208 C 
ATOM     17  C   UNL     1     123.377  87.055 110.166  1.00  0.00     0.027 A 
ATOM     18  C   UNL     1     124.733  84.289 110.278  1.00  0.00     0.153 C 
ATOM     19  C   UNL     1     121.830  88.366 108.819  1.00  0.00     0.001 A 
ATOM     20  C   UNL     1     122.674  88.239 109.935  1.00  0.00     0.002 A 
ATOM     21  C   UNL     1     124.185  85.556 105.689  1.00  0.00     0.102 C 
ATOM     22  H   UNL     1     118.211  83.064 108.224  1.00  0.00     0.190 HD
ENDROOT
BRANCH  16  23
ATOM     23  N   UNL     1     122.497  84.753 103.539  1.00  0.00    -0.369 N 
ATOM     24  H   UNL     1     121.849  84.470 102.816  1.00  0.00     0.159 HD
ATOM     25  H   UNL     1     123.410  85.113 103.293  1.00  0.00     0.159 HD
ENDBRANCH  16  23
BRANCH  13  26
ATOM     26  C   UNL     1     120.276  83.977 109.859  1.00  0.00     0.000 A 
ATOM     27  C   UNL     1     119.774  85.083 110.549  1.00  0.00     0.010 A 
ATOM     28  C   UNL     1     120.880  82.933 110.561  1.00  0.00     0.010 A 
ATOM     29  C   UNL     1     119.877  85.143 111.939  1.00  0.00     0.001 A 
ATOM     30  C   UNL     1     120.982  82.994 111.952  1.00  0.00     0.001 A 
ATOM     31  C   UNL     1     120.481  84.098 112.640  1.00  0.00     0.000 A 
ENDBRANCH  13  26
TORSDOF 2
ENDMDL
MODEL 13
REMARK VINA RESULT:      -6.9      2.089      4.392
REMARK SMILES CN1C(=O)[C@]2(C(C#N)=C(N)Oc3n[nH]c(-c4ccccc4)c32)c2ccccc21
REMARK SMILES IDX 11 1 4 2 2 3 14 4 13 5 8 6 5 7 23 8 22 9 3 10 28 11 6 12
REMARK SMILES IDX 15 13 12 14 24 15 9 16 27 17 1 18 25 19 26 20 7 21 10 23
REMARK SMILES IDX 16 26 17 27 21 28 18 29 20 30 19 31
REMARK H PARENT 14 22 10 24 10 25
ROOT
ATOM      1  O   UNL     1     105.003  96.996 112.309  1.00  0.00    -0.420 OA
ATOM      2  O   UNL     1     104.115  92.809 112.455  1.00  0.00    -0.273 OA
ATOM      3  N   UNL     1     104.497  92.371 114.744  1.00  0.00    -0.314 N 
ATOM      4  N   UNL     1     101.991  96.771 113.819  1.00  0.00    -0.274 N 
ATOM      5  N   UNL     1     102.830  97.439 112.999  1.00  0.00    -0.136 NA
ATOM      6  N   UNL     1     108.245  93.512 113.177  1.00  0.00    -0.193 NA
ATOM      7  C   UNL     1     104.922  94.574 113.978  1.00  0.00     0.149 C 
ATOM      8  C   UNL     1     105.202  94.430 115.452  1.00  0.00     0.001 A 
ATOM      9  C   UNL     1     103.803  95.538 113.845  1.00  0.00     0.067 A 
ATOM     10  C   UNL     1     104.456  93.153 113.577  1.00  0.00     0.247 C 
ATOM     11  C   UNL     1     104.937  93.116 115.848  1.00  0.00     0.048 A 
ATOM     12  C   UNL     1     106.125  95.006 113.136  1.00  0.00     0.114 C 
ATOM     13  C   UNL     1     102.524  95.622 114.344  1.00  0.00     0.074 A 
ATOM     14  C   UNL     1     103.915  96.670 113.030  1.00  0.00     0.245 A 
ATOM     15  C   UNL     1     105.668  95.362 116.368  1.00  0.00     0.008 A 
ATOM     16  C   UNL     1     106.117  96.137 112.373  1.00  0.00     0.208 C 
ATOM     17  C   UNL     1     105.114  92.698 117.157  1.00  0.00     0.027 A 
ATOM     18  C   UNL     1     104.132  90.975 114.798  1.00  0.00     0.153 C 
ATOM     19  C   UNL     1     105.851  94.957 117.691  1.00  0.00     0.001 A 
ATOM     20  C   UNL     1     105.576  93.636 118.083  1.00  0.00     0.002 A 
ATOM     21  C   UNL     1     107.297  94.180 113.159  1.00  0.00     0.102 C 
ATOM     22  H   UNL     1     101.067  97.154 113.970  1.00  0.00     0.190 HD
ENDROOT
BRANCH  16  23
ATOM     23  N   UNL     1     107.167  96.562 111.603  1.00  0.00    -0.369 N 
ATOM     24  H   UNL     1     107.843  95.881 111.283  1.00  0.00     0.159 HD
ATOM     25  H   UNL     1     107.271  97.538 111.356  1.00  0.00     0.159 HD
ENDBRANCH  16  23
BRANCH  13  26
ATOM     26  C   UNL     1     101.771  94.767 115.227  1.00  0.00     0.000 A 
ATOM     27  C   UNL     1     101.781  95.000 116.604  1.00  0.00     0.010 A 
ATOM     28  C   UNL     1     101.032  93.704 114.706  1.00  0.00     0.010 A 
ATOM     29  C   UNL     1     101.054  94.172 117.457  1.00  0.00     0.001 A 
ATOM     30  C   UNL     1     100.304  92.875 115.561  1.00  0.00     0.001 A 
ATOM     31  C   UNL     1     100.314  93.109 116.936  1.00  0.00     0.000 A 
ENDBRANCH  13  26
TORSDOF 2
ENDMDL
MODEL 14
REMARK VINA RESULT:      -6.9     13.780     16.686
REMARK SMILES CN1C(=O)[C@]2(C(C#N)=C(N)Oc3n[nH]c(-c4ccccc4)c32)c2ccccc21
REMARK SMILES IDX 11 1 4 2 2 3 14 4 13 5 8 6 5 7 23 8 22 9 3 10 28 11 6 12
REMARK SMILES IDX 15 13 12 14 24 15 9 16 27 17 1 18 25 19 26 20 7 21 10 23
REMARK SMILES IDX 16 26 17 27 21 28 18 29 20 30 19 31
REMARK H PARENT 14 22 10 24 10 25
ROOT
ATOM      1  O   UNL     1     117.216  99.473 124.936  1.00  0.00    -0.420 OA
ATOM      2  O   UNL     1     116.793  95.545 123.285  1.00  0.00    -0.273 OA
ATOM      3  N   UNL     1     117.244  95.987 121.009  1.00  0.00    -0.314 N 
ATOM      4  N   UNL     1     120.362  98.426 124.299  1.00  0.00    -0.274 N 
ATOM      5  N   UNL     1     119.508  99.123 125.078  1.00  0.00    -0.136 NA
ATOM      6  N   UNL     1     113.710  98.118 121.890  1.00  0.00    -0.193 NA
ATOM      7  C   UNL     1     117.228  97.838 122.490  1.00  0.00     0.149 C 
ATOM      8  C   UNL     1     117.530  98.257 121.073  1.00  0.00     0.001 A 
ATOM      9  C   UNL     1     118.433  98.150 123.296  1.00  0.00     0.067 A 
ATOM     10  C   UNL     1     117.048  96.307 122.364  1.00  0.00     0.247 C 
ATOM     11  C   UNL     1     117.525  97.130 120.245  1.00  0.00     0.048 A 
ATOM     12  C   UNL     1     115.978  98.482 123.095  1.00  0.00     0.114 C 
ATOM     13  C   UNL     1     119.767  97.819 123.224  1.00  0.00     0.074 A 
ATOM     14  C   UNL     1     118.350  98.935 124.451  1.00  0.00     0.245 A 
ATOM     15  C   UNL     1     117.770  99.518 120.546  1.00  0.00     0.008 A 
ATOM     16  C   UNL     1     116.019  99.231 124.235  1.00  0.00     0.208 C 
ATOM     17  C   UNL     1     117.769  97.222 118.885  1.00  0.00     0.027 A 
ATOM     18  C   UNL     1     117.165  94.650 120.471  1.00  0.00     0.153 C 
ATOM     19  C   UNL     1     118.018  99.627 119.176  1.00  0.00     0.001 A 
ATOM     20  C   UNL     1     118.018  98.489 118.353  1.00  0.00     0.002 A 
ATOM     21  C   UNL     1     114.725  98.281 122.429  1.00  0.00     0.102 C 
ATOM     22  H   UNL     1     121.338  98.403 124.565  1.00  0.00     0.190 HD
ENDROOT
BRANCH  16  23
ATOM     23  N   UNL     1     114.929  99.823 124.815  1.00  0.00    -0.369 N 
ATOM     24  H   UNL     1     114.048  99.324 124.818  1.00  0.00     0.159 HD
ATOM     25  H   UNL     1     114.995 100.742 125.233  1.00  0.00     0.159 HD
ENDBRANCH  16  23
BRANCH  13  26
ATOM     26  C   UNL     1     120.516  97.016 122.290  1.00  0.00     0.000 A 
ATOM     27  C   UNL     1     121.148  97.619 121.200  1.00  0.00     0.010 A 
ATOM     28  C   UNL     1     120.609  95.636 122.474  1.00  0.00     0.010 A 
ATOM     29  C   UNL     1     121.872  96.841 120.297  1.00  0.00     0.001 A 
ATOM     30  C   UNL     1     121.334  94.859 121.569  1.00  0.00     0.001 A 
ATOM     31  C   UNL     1     121.965  95.461 120.481  1.00  0.00     0.000 A 
ENDBRANCH  13  26
TORSDOF 2
ENDMDL
MODEL 15
REMARK VINA RESULT:      -6.9     13.575     15.961
REMARK SMILES CN1C(=O)[C@]2(C(C#N)=C(N)Oc3n[nH]c(-c4ccccc4)c32)c2ccccc21
REMARK SMILES IDX 11 1 4 2 2 3 14 4 13 5 8 6 5 7 23 8 22 9 3 10 28 11 6 12
REMARK SMILES IDX 15 13 12 14 24 15 9 16 27 17 1 18 25 19 26 20 7 21 10 23
REMARK SMILES IDX 16 26 17 27 21 28 18 29 20 30 19 31
REMARK H PARENT 14 22 10 24 10 25
ROOT
ATOM      1  O   UNL     1     116.250 100.720 119.018  1.00  0.00    -0.420 OA
ATOM      2  O   UNL     1     118.298  97.031 119.749  1.00  0.00    -0.273 OA
ATOM      3  N   UNL     1     119.028  97.380 121.968  1.00  0.00    -0.314 N 
ATOM      4  N   UNL     1     114.213  98.953 121.050  1.00  0.00    -0.274 N 
ATOM      5  N   UNL     1     114.361  99.826 120.031  1.00  0.00    -0.136 NA
ATOM      6  N   UNL     1     121.027 100.289 119.656  1.00  0.00    -0.193 NA
ATOM      7  C   UNL     1     117.871  99.162 120.915  1.00  0.00     0.149 C 
ATOM      8  C   UNL     1     118.278  99.513 122.325  1.00  0.00     0.001 A 
ATOM      9  C   UNL     1     116.389  99.163 120.883  1.00  0.00     0.067 A 
ATOM     10  C   UNL     1     118.410  97.720 120.752  1.00  0.00     0.247 C 
ATOM     11  C   UNL     1     118.955  98.430 122.894  1.00  0.00     0.048 A 
ATOM     12  C   UNL     1     118.447 100.080 119.835  1.00  0.00     0.114 C 
ATOM     13  C   UNL     1     115.398  98.521 121.589  1.00  0.00     0.074 A 
ATOM     14  C   UNL     1     115.685  99.931 119.949  1.00  0.00     0.245 A 
ATOM     15  C   UNL     1     118.090 100.684 123.043  1.00  0.00     0.008 A 
ATOM     16  C   UNL     1     117.657 100.783 118.973  1.00  0.00     0.208 C 
ATOM     17  C   UNL     1     119.450  98.477 124.187  1.00  0.00     0.027 A 
ATOM     18  C   UNL     1     119.659  96.108 122.228  1.00  0.00     0.153 C 
ATOM     19  C   UNL     1     118.583 100.748 124.348  1.00  0.00     0.001 A 
ATOM     20  C   UNL     1     119.257  99.653 124.916  1.00  0.00     0.002 A 
ATOM     21  C   UNL     1     119.873 100.196 119.736  1.00  0.00     0.102 C 
ATOM     22  H   UNL     1     113.274  98.692 121.322  1.00  0.00     0.190 HD
ENDROOT
BRANCH  16  23
ATOM     23  N   UNL     1     118.125 101.614 117.991  1.00  0.00    -0.369 N 
ATOM     24  H   UNL     1     118.634 102.446 118.259  1.00  0.00     0.159 HD
ATOM     25  H   UNL     1     117.969 101.406 117.013  1.00  0.00     0.159 HD
ENDBRANCH  16  23
BRANCH  13  26
ATOM     26  C   UNL     1     115.441  97.573 122.674  1.00  0.00     0.000 A 
ATOM     27  C   UNL     1     115.315  98.013 123.993  1.00  0.00     0.010 A 
ATOM     28  C   UNL     1     115.609  96.214 122.407  1.00  0.00     0.010 A 
ATOM     29  C   UNL     1     115.358  97.096 125.042  1.00  0.00     0.001 A 
ATOM     30  C   UNL     1     115.652  95.296 123.457  1.00  0.00     0.001 A 
ATOM     31  C   UNL     1     115.526  95.736 124.775  1.00  0.00     0.000 A 
ENDBRANCH  13  26
TORSDOF 2
ENDMDL
