MODEL 1
REMARK VINA RESULT:      -8.6      0.000      0.000
REMARK SMILES C[C@@H]1C[C@H]1C(=O)Nc1cccc(C(=O)N2CCC[C@]3(CCCCO3)[C@@H]2C#N)c1
REMARK SMILES IDX 12 1 8 2 28 3 11 4 9 5 10 6 13 7 14 8 15 9 24 10 19 11 23 12
REMARK SMILES IDX 18 13 25 14 20 15 22 16 17 17 26 18 21 19 16 20 27 21 7 22
REMARK SMILES IDX 5 23 6 24 4 26 2 27 3 28 1 29
REMARK H PARENT 7 25
ROOT
ATOM      1  C   UNL     1     105.944  93.855 117.022  1.00  0.00     0.042 A 
ATOM      2  C   UNL     1     107.038  94.991 118.852  1.00  0.00     0.041 A 
ATOM      3  C   UNL     1     106.971  93.917 117.965  1.00  0.00     0.040 A 
ATOM      4  C   UNL     1     104.985  94.866 116.967  1.00  0.00     0.014 A 
ATOM      5  C   UNL     1     106.080  96.002 118.797  1.00  0.00     0.026 A 
ATOM      6  C   UNL     1     105.054  95.941 117.855  1.00  0.00     0.003 A 
ENDROOT
BRANCH   1   7
ATOM      7  C   UNL     1     105.873  92.726 116.088  1.00  0.00     0.255 C 
ATOM      8  O   UNL     1     105.741  91.613 116.595  1.00  0.00    -0.269 OA
BRANCH   7   9
ATOM      9  N   UNL     1     105.954  93.000 114.716  1.00  0.00    -0.320 N 
ATOM     10  O   UNL     1     104.854  95.552 113.871  1.00  0.00    -0.372 OA
ATOM     11  C   UNL     1     105.871  94.900 113.076  1.00  0.00     0.102 C 
ATOM     12  C   UNL     1     104.002  96.458 113.176  1.00  0.00     0.161 C 
ATOM     13  C   UNL     1     105.235  93.917 112.063  1.00  0.00     0.041 C 
ATOM     14  C   UNL     1     106.732  94.113 114.113  1.00  0.00     0.221 C 
ATOM     15  C   UNL     1     106.721  95.981 112.366  1.00  0.00     0.039 C 
ATOM     16  C   UNL     1     104.797  97.571 112.515  1.00  0.00     0.029 C 
ATOM     17  C   UNL     1     104.441  92.821 112.770  1.00  0.00     0.025 C 
ATOM     18  C   UNL     1     107.991  93.584 113.551  1.00  0.00     0.090 C 
ATOM     19  C   UNL     1     105.873  96.996 111.606  1.00  0.00     0.005 C 
ATOM     20  C   UNL     1     105.307  92.078 113.777  1.00  0.00     0.121 C 
ATOM     21  N   UNL     1     108.980  93.167 113.110  1.00  0.00    -0.196 NA
ENDBRANCH   7   9
ENDBRANCH   1   7
BRANCH   2  22
ATOM     22  N   UNL     1     108.065  95.053 119.795  1.00  0.00    -0.326 N 
ATOM     23  C   UNL     1     109.410  94.714 119.627  1.00  0.00     0.227 C 
ATOM     24  O   UNL     1     109.957  94.292 118.617  1.00  0.00    -0.274 OA
ATOM     25  H   UNL     1     107.790  95.395 120.714  1.00  0.00     0.169 HD
BRANCH  23  26
ATOM     26  C   UNL     1     110.240  94.904 120.859  1.00  0.00     0.082 C 
ATOM     27  C   UNL     1     111.584  95.538 120.713  1.00  0.00    -0.001 C 
ATOM     28  C   UNL     1     110.457  96.296 121.357  1.00  0.00     0.018 C 
ATOM     29  C   UNL     1     112.720  95.041 121.538  1.00  0.00     0.008 C 
ENDBRANCH  23  26
ENDBRANCH   2  22
TORSDOF 4
ENDMDL
MODEL 2
REMARK VINA RESULT:      -8.3      8.351     11.187
REMARK SMILES C[C@@H]1C[C@H]1C(=O)Nc1cccc(C(=O)N2CCC[C@]3(CCCCO3)[C@@H]2C#N)c1
REMARK SMILES IDX 12 1 8 2 28 3 11 4 9 5 10 6 13 7 14 8 15 9 24 10 19 11 23 12
REMARK SMILES IDX 18 13 25 14 20 15 22 16 17 17 26 18 21 19 16 20 27 21 7 22
REMARK SMILES IDX 5 23 6 24 4 26 2 27 3 28 1 29
REMARK H PARENT 7 25
ROOT
ATOM      1  C   UNL     1     115.327  94.967 122.483  1.00  0.00     0.042 A 
ATOM      2  C   UNL     1     117.366  95.137 121.198  1.00  0.00     0.041 A 
ATOM      3  C   UNL     1     116.562  95.573 122.251  1.00  0.00     0.040 A 
ATOM      4  C   UNL     1     114.895  93.925 121.661  1.00  0.00     0.014 A 
ATOM      5  C   UNL     1     116.935  94.096 120.377  1.00  0.00     0.026 A 
ATOM      6  C   UNL     1     115.700  93.490 120.608  1.00  0.00     0.003 A 
ENDROOT
BRANCH   1   7
ATOM      7  C   UNL     1     114.481  95.423 123.591  1.00  0.00     0.255 C 
ATOM      8  O   UNL     1     114.880  95.149 124.722  1.00  0.00    -0.269 OA
BRANCH   7   9
ATOM      9  N   UNL     1     113.310  96.127 123.279  1.00  0.00    -0.320 N 
ATOM     10  O   UNL     1     113.687  98.668 121.923  1.00  0.00    -0.372 OA
ATOM     11  C   UNL     1     112.442  97.946 121.781  1.00  0.00     0.102 C 
ATOM     12  C   UNL     1     113.621 100.075 121.714  1.00  0.00     0.161 C 
ATOM     13  C   UNL     1     111.453  98.320 122.912  1.00  0.00     0.041 C 
ATOM     14  C   UNL     1     112.846  96.443 121.904  1.00  0.00     0.221 C 
ATOM     15  C   UNL     1     111.848  98.241 120.383  1.00  0.00     0.039 C 
ATOM     16  C   UNL     1     113.099 100.406 120.326  1.00  0.00     0.029 C 
ATOM     17  C   UNL     1     112.021  97.978 124.288  1.00  0.00     0.025 C 
ATOM     18  C   UNL     1     111.765  95.511 121.524  1.00  0.00     0.090 C 
ATOM     19  C   UNL     1     111.756  99.734 120.083  1.00  0.00     0.005 C 
ATOM     20  C   UNL     1     112.410  96.509 124.372  1.00  0.00     0.121 C 
ATOM     21  N   UNL     1     110.917  94.778 121.226  1.00  0.00    -0.196 NA
ENDBRANCH   7   9
ENDBRANCH   1   7
BRANCH   2  22
ATOM     22  N   UNL     1     118.601  95.743 120.966  1.00  0.00    -0.326 N 
ATOM     23  C   UNL     1     118.950  96.617 119.933  1.00  0.00     0.227 C 
ATOM     24  O   UNL     1     118.241  97.026 119.023  1.00  0.00    -0.274 OA
ATOM     25  H   UNL     1     119.328  95.519 121.642  1.00  0.00     0.169 HD
BRANCH  23  26
ATOM     26  C   UNL     1     120.373  97.080 119.989  1.00  0.00     0.082 C 
ATOM     27  C   UNL     1     121.420  96.096 120.396  1.00  0.00    -0.001 C 
ATOM     28  C   UNL     1     121.329  96.555 118.968  1.00  0.00     0.018 C 
ATOM     29  C   UNL     1     122.550  96.546 121.256  1.00  0.00     0.008 C 
ENDBRANCH  23  26
ENDBRANCH   2  22
TORSDOF 4
ENDMDL
MODEL 3
REMARK VINA RESULT:      -8.2      3.061      5.402
REMARK SMILES C[C@@H]1C[C@H]1C(=O)Nc1cccc(C(=O)N2CCC[C@]3(CCCCO3)[C@@H]2C#N)c1
REMARK SMILES IDX 12 1 8 2 28 3 11 4 9 5 10 6 13 7 14 8 15 9 24 10 19 11 23 12
REMARK SMILES IDX 18 13 25 14 20 15 22 16 17 17 26 18 21 19 16 20 27 21 7 22
REMARK SMILES IDX 5 23 6 24 4 26 2 27 3 28 1 29
REMARK H PARENT 7 25
ROOT
ATOM      1  C   UNL     1     106.401  93.548 115.692  1.00  0.00     0.042 A 
ATOM      2  C   UNL     1     104.905  92.800 117.436  1.00  0.00     0.041 A 
ATOM      3  C   UNL     1     105.279  92.822 116.092  1.00  0.00     0.040 A 
ATOM      4  C   UNL     1     107.150  94.252 116.636  1.00  0.00     0.014 A 
ATOM      5  C   UNL     1     105.654  93.503 118.379  1.00  0.00     0.026 A 
ATOM      6  C   UNL     1     106.776  94.229 117.980  1.00  0.00     0.003 A 
ENDROOT
BRANCH   1   7
ATOM      7  C   UNL     1     106.795  93.571 114.279  1.00  0.00     0.255 C 
ATOM      8  O   UNL     1     107.980  93.336 114.046  1.00  0.00    -0.269 OA
BRANCH   7   9
ATOM      9  N   UNL     1     105.808  93.850 113.325  1.00  0.00    -0.320 N 
ATOM     10  O   UNL     1     103.555  95.426 114.260  1.00  0.00    -0.372 OA
ATOM     11  C   UNL     1     103.904  95.418 112.857  1.00  0.00     0.102 C 
ATOM     12  C   UNL     1     102.200  95.741 114.566  1.00  0.00     0.161 C 
ATOM     13  C   UNL     1     103.204  94.250 112.120  1.00  0.00     0.041 C 
ATOM     14  C   UNL     1     105.450  95.207 112.839  1.00  0.00     0.221 C 
ATOM     15  C   UNL     1     103.530  96.787 112.239  1.00  0.00     0.039 C 
ATOM     16  C   UNL     1     101.813  97.108 114.028  1.00  0.00     0.029 C 
ATOM     17  C   UNL     1     103.616  92.897 112.697  1.00  0.00     0.025 C 
ATOM     18  C   UNL     1     106.059  95.431 111.513  1.00  0.00     0.090 C 
ATOM     19  C   UNL     1     102.090  97.196 112.536  1.00  0.00     0.005 C 
ATOM     20  C   UNL     1     105.128  92.727 112.671  1.00  0.00     0.121 C 
ATOM     21  N   UNL     1     106.538  95.606 110.471  1.00  0.00    -0.196 NA
ENDBRANCH   7   9
ENDBRANCH   1   7
BRANCH   2  22
ATOM     22  N   UNL     1     103.782  92.075 117.836  1.00  0.00    -0.326 N 
ATOM     23  C   UNL     1     102.442  92.466 117.786  1.00  0.00     0.227 C 
ATOM     24  O   UNL     1     101.984  93.525 117.381  1.00  0.00    -0.274 OA
ATOM     25  H   UNL     1     103.975  91.145 118.203  1.00  0.00     0.169 HD
BRANCH  23  26
ATOM     26  C   UNL     1     101.491  91.431 118.302  1.00  0.00     0.082 C 
ATOM     27  C   UNL     1     101.271  91.348 119.777  1.00  0.00    -0.001 C 
ATOM     28  C   UNL     1     100.192  91.890 118.882  1.00  0.00     0.018 C 
ATOM     29  C   UNL     1     101.112  90.013 120.419  1.00  0.00     0.008 C 
ENDBRANCH  23  26
ENDBRANCH   2  22
TORSDOF 4
ENDMDL
MODEL 4
REMARK VINA RESULT:      -8.0      2.385      4.548
REMARK SMILES C[C@@H]1C[C@H]1C(=O)Nc1cccc(C(=O)N2CCC[C@]3(CCCCO3)[C@@H]2C#N)c1
REMARK SMILES IDX 12 1 8 2 28 3 11 4 9 5 10 6 13 7 14 8 15 9 24 10 19 11 23 12
REMARK SMILES IDX 18 13 25 14 20 15 22 16 17 17 26 18 21 19 16 20 27 21 7 22
REMARK SMILES IDX 5 23 6 24 4 26 2 27 3 28 1 29
REMARK H PARENT 7 25
ROOT
ATOM      1  C   UNL     1     105.779  93.860 117.078  1.00  0.00     0.042 A 
ATOM      2  C   UNL     1     105.025  95.940 118.049  1.00  0.00     0.041 A 
ATOM      3  C   UNL     1     104.845  94.894 117.145  1.00  0.00     0.040 A 
ATOM      4  C   UNL     1     106.895  93.873 117.915  1.00  0.00     0.014 A 
ATOM      5  C   UNL     1     106.140  95.953 118.886  1.00  0.00     0.026 A 
ATOM      6  C   UNL     1     107.075  94.920 118.820  1.00  0.00     0.003 A 
ENDROOT
BRANCH   1   7
ATOM      7  C   UNL     1     105.589  92.759 116.128  1.00  0.00     0.255 C 
ATOM      8  O   UNL     1     105.318  91.664 116.619  1.00  0.00    -0.269 OA
BRANCH   7   9
ATOM      9  N   UNL     1     105.723  93.037 114.761  1.00  0.00    -0.320 N 
ATOM     10  O   UNL     1     104.675  95.600 113.886  1.00  0.00    -0.372 OA
ATOM     11  C   UNL     1     105.716  94.943 113.127  1.00  0.00     0.102 C 
ATOM     12  C   UNL     1     103.856  96.514 113.162  1.00  0.00     0.161 C 
ATOM     13  C   UNL     1     105.112  93.969 112.087  1.00  0.00     0.041 C 
ATOM     14  C   UNL     1     106.531  94.146 114.193  1.00  0.00     0.221 C 
ATOM     15  C   UNL     1     106.600  96.020 112.453  1.00  0.00     0.039 C 
ATOM     16  C   UNL     1     104.684  97.624 112.536  1.00  0.00     0.029 C 
ATOM     17  C   UNL     1     104.284  92.875 112.759  1.00  0.00     0.025 C 
ATOM     18  C   UNL     1     107.807  93.609 113.676  1.00  0.00     0.090 C 
ATOM     19  C   UNL     1     105.789  97.045 111.666  1.00  0.00     0.005 C 
ATOM     20  C   UNL     1     105.106  92.123 113.795  1.00  0.00     0.121 C 
ATOM     21  N   UNL     1     108.809  93.187 113.271  1.00  0.00    -0.196 NA
ENDBRANCH   7   9
ENDBRANCH   1   7
BRANCH   2  22
ATOM     22  N   UNL     1     104.091  96.974 118.116  1.00  0.00    -0.326 N 
ATOM     23  C   UNL     1     104.314  98.346 117.972  1.00  0.00     0.227 C 
ATOM     24  O   UNL     1     105.375  98.916 117.759  1.00  0.00    -0.274 OA
ATOM     25  H   UNL     1     103.131  96.681 118.285  1.00  0.00     0.169 HD
BRANCH  23  26
ATOM     26  C   UNL     1     103.075  99.177 118.104  1.00  0.00     0.082 C 
ATOM     27  C   UNL     1     102.993 100.450 117.327  1.00  0.00    -0.001 C 
ATOM     28  C   UNL     1     102.155  99.267 116.931  1.00  0.00     0.018 C 
ATOM     29  C   UNL     1     102.355 101.645 117.948  1.00  0.00     0.008 C 
ENDBRANCH  23  26
ENDBRANCH   2  22
TORSDOF 4
ENDMDL
MODEL 5
REMARK VINA RESULT:      -8.0     10.176     12.194
REMARK SMILES C[C@@H]1C[C@H]1C(=O)Nc1cccc(C(=O)N2CCC[C@]3(CCCCO3)[C@@H]2C#N)c1
REMARK SMILES IDX 12 1 8 2 28 3 11 4 9 5 10 6 13 7 14 8 15 9 24 10 19 11 23 12
REMARK SMILES IDX 18 13 25 14 20 15 22 16 17 17 26 18 21 19 16 20 27 21 7 22
REMARK SMILES IDX 5 23 6 24 4 26 2 27 3 28 1 29
REMARK H PARENT 7 25
ROOT
ATOM      1  C   UNL     1     115.415  94.839 122.536  1.00  0.00     0.042 A 
ATOM      2  C   UNL     1     117.420  95.085 121.210  1.00  0.00     0.041 A 
ATOM      3  C   UNL     1     116.659  95.434 122.326  1.00  0.00     0.040 A 
ATOM      4  C   UNL     1     114.931  93.896 121.629  1.00  0.00     0.014 A 
ATOM      5  C   UNL     1     116.936  94.141 120.304  1.00  0.00     0.026 A 
ATOM      6  C   UNL     1     115.692  93.547 120.513  1.00  0.00     0.003 A 
ENDROOT
BRANCH   1   7
ATOM      7  C   UNL     1     114.615  95.205 123.709  1.00  0.00     0.255 C 
ATOM      8  O   UNL     1     114.274  94.276 124.440  1.00  0.00    -0.269 OA
BRANCH   7   9
ATOM      9  N   UNL     1     114.312  96.559 123.904  1.00  0.00    -0.320 N 
ATOM     10  O   UNL     1     115.210  98.367 121.816  1.00  0.00    -0.372 OA
ATOM     11  C   UNL     1     114.095  98.730 122.662  1.00  0.00     0.102 C 
ATOM     12  C   UNL     1     115.922  99.448 121.222  1.00  0.00     0.161 C 
ATOM     13  C   UNL     1     114.583  99.443 123.946  1.00  0.00     0.041 C 
ATOM     14  C   UNL     1     113.426  97.369 123.031  1.00  0.00     0.221 C 
ATOM     15  C   UNL     1     113.120  99.618 121.851  1.00  0.00     0.039 C 
ATOM     16  C   UNL     1     115.010 100.310 120.367  1.00  0.00     0.029 C 
ATOM     17  C   UNL     1     115.502  98.544 124.771  1.00  0.00     0.025 C 
ATOM     18  C   UNL     1     112.105  97.519 123.675  1.00  0.00     0.090 C 
ATOM     19  C   UNL     1     113.816 100.795 121.175  1.00  0.00     0.005 C 
ATOM     20  C   UNL     1     114.822  97.225 125.107  1.00  0.00     0.121 C 
ATOM     21  N   UNL     1     111.068  97.636 124.181  1.00  0.00    -0.196 NA
ENDBRANCH   7   9
ENDBRANCH   1   7
BRANCH   2  22
ATOM     22  N   UNL     1     118.664  95.680 121.000  1.00  0.00    -0.326 N 
ATOM     23  C   UNL     1     118.988  96.707 120.109  1.00  0.00     0.227 C 
ATOM     24  O   UNL     1     118.243  97.290 119.333  1.00  0.00    -0.274 OA
ATOM     25  H   UNL     1     119.421  95.317 121.576  1.00  0.00     0.169 HD
BRANCH  23  26
ATOM     26  C   UNL     1     120.431  97.104 120.144  1.00  0.00     0.082 C 
ATOM     27  C   UNL     1     121.443  96.060 120.482  1.00  0.00    -0.001 C 
ATOM     28  C   UNL     1     121.336  96.581 119.077  1.00  0.00     0.018 C 
ATOM     29  C   UNL     1     122.614  96.423 121.328  1.00  0.00     0.008 C 
ENDBRANCH  23  26
ENDBRANCH   2  22
TORSDOF 4
ENDMDL
MODEL 6
REMARK VINA RESULT:      -7.7     10.201     13.510
REMARK SMILES C[C@@H]1C[C@H]1C(=O)Nc1cccc(C(=O)N2CCC[C@]3(CCCCO3)[C@@H]2C#N)c1
REMARK SMILES IDX 12 1 8 2 28 3 11 4 9 5 10 6 13 7 14 8 15 9 24 10 19 11 23 12
REMARK SMILES IDX 18 13 25 14 20 15 22 16 17 17 26 18 21 19 16 20 27 21 7 22
REMARK SMILES IDX 5 23 6 24 4 26 2 27 3 28 1 29
REMARK H PARENT 7 25
ROOT
ATOM      1  C   UNL     1     117.423 101.671 118.839  1.00  0.00     0.042 A 
ATOM      2  C   UNL     1     115.347 102.905 118.732  1.00  0.00     0.041 A 
ATOM      3  C   UNL     1     116.188 102.011 119.394  1.00  0.00     0.040 A 
ATOM      4  C   UNL     1     117.816 102.227 117.621  1.00  0.00     0.014 A 
ATOM      5  C   UNL     1     115.741 103.460 117.515  1.00  0.00     0.026 A 
ATOM      6  C   UNL     1     116.974 103.122 116.959  1.00  0.00     0.003 A 
ENDROOT
BRANCH   1   7
ATOM      7  C   UNL     1     118.308 100.732 119.535  1.00  0.00     0.255 C 
ATOM      8  O   UNL     1     119.344 101.208 119.996  1.00  0.00    -0.269 OA
BRANCH   7   9
ATOM      9  N   UNL     1     117.908  99.392 119.621  1.00  0.00    -0.320 N 
ATOM     10  O   UNL     1     120.006  97.487 120.259  1.00  0.00    -0.372 OA
ATOM     11  C   UNL     1     118.626  97.176 120.560  1.00  0.00     0.102 C 
ATOM     12  C   UNL     1     120.874  96.371 120.083  1.00  0.00     0.161 C 
ATOM     13  C   UNL     1     117.932  96.507 119.349  1.00  0.00     0.041 C 
ATOM     14  C   UNL     1     117.969  98.562 120.852  1.00  0.00     0.221 C 
ATOM     15  C   UNL     1     118.579  96.272 121.815  1.00  0.00     0.039 C 
ATOM     16  C   UNL     1     120.902  95.490 121.321  1.00  0.00     0.029 C 
ATOM     17  C   UNL     1     117.933  97.424 118.127  1.00  0.00     0.025 C 
ATOM     18  C   UNL     1     116.619  98.460 121.443  1.00  0.00     0.090 C 
ATOM     19  C   UNL     1     119.495  95.057 121.705  1.00  0.00     0.005 C 
ATOM     20  C   UNL     1     117.292  98.766 118.447  1.00  0.00     0.121 C 
ATOM     21  N   UNL     1     115.559  98.380 121.907  1.00  0.00    -0.196 NA
ENDBRANCH   7   9
ENDBRANCH   1   7
BRANCH   2  22
ATOM     22  N   UNL     1     114.113 103.244 119.287  1.00  0.00    -0.326 N 
ATOM     23  C   UNL     1     112.880 102.617 119.092  1.00  0.00     0.227 C 
ATOM     24  O   UNL     1     112.636 101.643 118.393  1.00  0.00    -0.274 OA
ATOM     25  H   UNL     1     114.125 104.045 119.915  1.00  0.00     0.169 HD
BRANCH  23  26
ATOM     26  C   UNL     1     111.754 103.249 119.849  1.00  0.00     0.082 C 
ATOM     27  C   UNL     1     110.560 102.411 120.169  1.00  0.00    -0.001 C 
ATOM     28  C   UNL     1     111.515 102.814 121.257  1.00  0.00     0.018 C 
ATOM     29  C   UNL     1     109.201 103.018 120.102  1.00  0.00     0.008 C 
ENDBRANCH  23  26
ENDBRANCH   2  22
TORSDOF 4
ENDMDL
MODEL 7
REMARK VINA RESULT:      -7.6      8.369     11.477
REMARK SMILES C[C@@H]1C[C@H]1C(=O)Nc1cccc(C(=O)N2CCC[C@]3(CCCCO3)[C@@H]2C#N)c1
REMARK SMILES IDX 12 1 8 2 28 3 11 4 9 5 10 6 13 7 14 8 15 9 24 10 19 11 23 12
REMARK SMILES IDX 18 13 25 14 20 15 22 16 17 17 26 18 21 19 16 20 27 21 7 22
REMARK SMILES IDX 5 23 6 24 4 26 2 27 3 28 1 29
REMARK H PARENT 7 25
ROOT
ATOM      1  C   UNL     1     115.221  96.356 124.232  1.00  0.00     0.042 A 
ATOM      2  C   UNL     1     117.522  96.616 123.544  1.00  0.00     0.041 A 
ATOM      3  C   UNL     1     116.314  95.922 123.482  1.00  0.00     0.040 A 
ATOM      4  C   UNL     1     115.336  97.484 125.046  1.00  0.00     0.014 A 
ATOM      5  C   UNL     1     117.637  97.743 124.357  1.00  0.00     0.026 A 
ATOM      6  C   UNL     1     116.545  98.177 125.107  1.00  0.00     0.003 A 
ENDROOT
BRANCH   1   7
ATOM      7  C   UNL     1     113.949  95.627 124.167  1.00  0.00     0.255 C 
ATOM      8  O   UNL     1     113.958  94.486 124.625  1.00  0.00    -0.269 OA
BRANCH   7   9
ATOM      9  N   UNL     1     112.845  96.280 123.603  1.00  0.00    -0.320 N 
ATOM     10  O   UNL     1     113.414  98.782 122.243  1.00  0.00    -0.372 OA
ATOM     11  C   UNL     1     112.241  98.014 121.891  1.00  0.00     0.102 C 
ATOM     12  C   UNL     1     113.354 100.178 121.967  1.00  0.00     0.161 C 
ATOM     13  C   UNL     1     111.040  98.395 122.790  1.00  0.00     0.041 C 
ATOM     14  C   UNL     1     112.652  96.531 122.152  1.00  0.00     0.221 C 
ATOM     15  C   UNL     1     111.926  98.239 120.392  1.00  0.00     0.039 C 
ATOM     16  C   UNL     1     113.106 100.441 120.491  1.00  0.00     0.029 C 
ATOM     17  C   UNL     1     111.334  98.121 124.264  1.00  0.00     0.025 C 
ATOM     18  C   UNL     1     111.692  95.550 121.607  1.00  0.00     0.090 C 
ATOM     19  C   UNL     1     111.856  99.716 120.018  1.00  0.00     0.005 C 
ATOM     20  C   UNL     1     111.737  96.670 124.482  1.00  0.00     0.121 C 
ATOM     21  N   UNL     1     110.938  94.778 121.180  1.00  0.00    -0.196 NA
ENDBRANCH   7   9
ENDBRANCH   1   7
BRANCH   2  22
ATOM     22  N   UNL     1     118.615  96.182 122.794  1.00  0.00    -0.326 N 
ATOM     23  C   UNL     1     118.925  96.490 121.466  1.00  0.00     0.227 C 
ATOM     24  O   UNL     1     118.297  97.203 120.695  1.00  0.00    -0.274 OA
ATOM     25  H   UNL     1     119.264  95.571 123.285  1.00  0.00     0.169 HD
BRANCH  23  26
ATOM     26  C   UNL     1     120.184  95.846 120.974  1.00  0.00     0.082 C 
ATOM     27  C   UNL     1     121.435  96.047 121.765  1.00  0.00    -0.001 C 
ATOM     28  C   UNL     1     120.751  94.709 121.760  1.00  0.00     0.018 C 
ATOM     29  C   UNL     1     122.730  96.229 121.051  1.00  0.00     0.008 C 
ENDBRANCH  23  26
ENDBRANCH   2  22
TORSDOF 4
ENDMDL
MODEL 8
REMARK VINA RESULT:      -7.6      8.265     11.854
REMARK SMILES C[C@@H]1C[C@H]1C(=O)Nc1cccc(C(=O)N2CCC[C@]3(CCCCO3)[C@@H]2C#N)c1
REMARK SMILES IDX 12 1 8 2 28 3 11 4 9 5 10 6 13 7 14 8 15 9 24 10 19 11 23 12
REMARK SMILES IDX 18 13 25 14 20 15 22 16 17 17 26 18 21 19 16 20 27 21 7 22
REMARK SMILES IDX 5 23 6 24 4 26 2 27 3 28 1 29
REMARK H PARENT 7 25
ROOT
ATOM      1  C   UNL     1     117.102  96.337 122.296  1.00  0.00     0.042 A 
ATOM      2  C   UNL     1     117.951  97.652 120.455  1.00  0.00     0.041 A 
ATOM      3  C   UNL     1     117.351  97.579 121.713  1.00  0.00     0.040 A 
ATOM      4  C   UNL     1     117.452  95.167 121.621  1.00  0.00     0.014 A 
ATOM      5  C   UNL     1     118.301  96.483 119.782  1.00  0.00     0.026 A 
ATOM      6  C   UNL     1     118.052  95.240 120.364  1.00  0.00     0.003 A 
ENDROOT
BRANCH   1   7
ATOM      7  C   UNL     1     116.472  96.259 123.618  1.00  0.00     0.255 C 
ATOM      8  O   UNL     1     117.208  96.477 124.580  1.00  0.00    -0.269 OA
BRANCH   7   9
ATOM      9  N   UNL     1     115.107  95.954 123.680  1.00  0.00    -0.320 N 
ATOM     10  O   UNL     1     113.356  97.669 122.121  1.00  0.00    -0.372 OA
ATOM     11  C   UNL     1     112.945  96.324 122.457  1.00  0.00     0.102 C 
ATOM     12  C   UNL     1     112.308  98.596 121.860  1.00  0.00     0.161 C 
ATOM     13  C   UNL     1     112.233  96.290 123.831  1.00  0.00     0.041 C 
ATOM     14  C   UNL     1     114.278  95.514 122.529  1.00  0.00     0.221 C 
ATOM     15  C   UNL     1     112.034  95.782 121.329  1.00  0.00     0.039 C 
ATOM     16  C   UNL     1     111.426  98.128 120.714  1.00  0.00     0.029 C 
ATOM     17  C   UNL     1     113.152  96.775 124.950  1.00  0.00     0.025 C 
ATOM     18  C   UNL     1     114.075  94.053 122.598  1.00  0.00     0.090 C 
ATOM     19  C   UNL     1     110.890  96.731 120.985  1.00  0.00     0.005 C 
ATOM     20  C   UNL     1     114.443  95.970 124.988  1.00  0.00     0.121 C 
ATOM     21  N   UNL     1     113.917  92.905 122.653  1.00  0.00    -0.196 NA
ENDBRANCH   7   9
ENDBRANCH   1   7
BRANCH   2  22
ATOM     22  N   UNL     1     118.200  98.895 119.872  1.00  0.00    -0.326 N 
ATOM     23  C   UNL     1     117.282  99.770 119.285  1.00  0.00     0.227 C 
ATOM     24  O   UNL     1     116.074  99.620 119.164  1.00  0.00    -0.274 OA
ATOM     25  H   UNL     1     119.173  99.194 119.887  1.00  0.00     0.169 HD
BRANCH  23  26
ATOM     26  C   UNL     1     117.900 101.026 118.753  1.00  0.00     0.082 C 
ATOM     27  C   UNL     1     116.993 102.145 118.356  1.00  0.00    -0.001 C 
ATOM     28  C   UNL     1     117.835 102.258 119.596  1.00  0.00     0.018 C 
ATOM     29  C   UNL     1     117.321 102.958 117.152  1.00  0.00     0.008 C 
ENDBRANCH  23  26
ENDBRANCH   2  22
TORSDOF 4
ENDMDL
MODEL 9
REMARK VINA RESULT:      -7.6     10.518     13.233
REMARK SMILES C[C@@H]1C[C@H]1C(=O)Nc1cccc(C(=O)N2CCC[C@]3(CCCCO3)[C@@H]2C#N)c1
REMARK SMILES IDX 12 1 8 2 28 3 11 4 9 5 10 6 13 7 14 8 15 9 24 10 19 11 23 12
REMARK SMILES IDX 18 13 25 14 20 15 22 16 17 17 26 18 21 19 16 20 27 21 7 22
REMARK SMILES IDX 5 23 6 24 4 26 2 27 3 28 1 29
REMARK H PARENT 7 25
ROOT
ATOM      1  C   UNL     1     115.572  95.168 122.232  1.00  0.00     0.042 A 
ATOM      2  C   UNL     1     117.801  94.599 121.493  1.00  0.00     0.041 A 
ATOM      3  C   UNL     1     116.955  95.306 122.348  1.00  0.00     0.040 A 
ATOM      4  C   UNL     1     115.034  94.324 121.259  1.00  0.00     0.014 A 
ATOM      5  C   UNL     1     117.263  93.756 120.521  1.00  0.00     0.026 A 
ATOM      6  C   UNL     1     115.881  93.617 120.404  1.00  0.00     0.003 A 
ENDROOT
BRANCH   1   7
ATOM      7  C   UNL     1     114.682  95.909 123.131  1.00  0.00     0.255 C 
ATOM      8  O   UNL     1     113.689  95.301 123.529  1.00  0.00    -0.269 OA
BRANCH   7   9
ATOM      9  N   UNL     1     115.029  97.225 123.464  1.00  0.00    -0.320 N 
ATOM     10  O   UNL     1     117.499  98.213 122.298  1.00  0.00    -0.372 OA
ATOM     11  C   UNL     1     116.464  99.139 122.701  1.00  0.00     0.102 C 
ATOM     12  C   UNL     1     118.824  98.734 122.258  1.00  0.00     0.161 C 
ATOM     13  C   UNL     1     116.624  99.532 124.190  1.00  0.00     0.041 C 
ATOM     14  C   UNL     1     115.133  98.349 122.499  1.00  0.00     0.221 C 
ATOM     15  C   UNL     1     116.513 100.378 121.775  1.00  0.00     0.039 C 
ATOM     16  C   UNL     1     118.926  99.917 121.309  1.00  0.00     0.029 C 
ATOM     17  C   UNL     1     116.522  98.314 125.105  1.00  0.00     0.025 C 
ATOM     18  C   UNL     1     113.927  99.196 122.599  1.00  0.00     0.090 C 
ATOM     19  C   UNL     1     117.908 100.987 121.674  1.00  0.00     0.005 C 
ATOM     20  C   UNL     1     115.217  97.564 124.878  1.00  0.00     0.121 C 
ATOM     21  N   UNL     1     112.979  99.860 122.678  1.00  0.00    -0.196 NA
ENDBRANCH   7   9
ENDBRANCH   1   7
BRANCH   2  22
ATOM     22  N   UNL     1     119.185  94.737 121.609  1.00  0.00    -0.326 N 
ATOM     23  C   UNL     1     120.034  95.555 120.859  1.00  0.00     0.227 C 
ATOM     24  O   UNL     1     119.734  96.314 119.948  1.00  0.00    -0.274 OA
ATOM     25  H   UNL     1     119.617  94.173 122.336  1.00  0.00     0.169 HD
BRANCH  23  26
ATOM     26  C   UNL     1     121.475  95.453 121.253  1.00  0.00     0.082 C 
ATOM     27  C   UNL     1     122.504  95.987 120.312  1.00  0.00    -0.001 C 
ATOM     28  C   UNL     1     122.205  96.710 121.596  1.00  0.00     0.018 C 
ATOM     29  C   UNL     1     123.792  95.257 120.146  1.00  0.00     0.008 C 
ENDBRANCH  23  26
ENDBRANCH   2  22
TORSDOF 4
ENDMDL
MODEL 10
REMARK VINA RESULT:      -7.5     10.377     12.984
REMARK SMILES C[C@@H]1C[C@H]1C(=O)Nc1cccc(C(=O)N2CCC[C@]3(CCCCO3)[C@@H]2C#N)c1
REMARK SMILES IDX 12 1 8 2 28 3 11 4 9 5 10 6 13 7 14 8 15 9 24 10 19 11 23 12
REMARK SMILES IDX 18 13 25 14 20 15 22 16 17 17 26 18 21 19 16 20 27 21 7 22
REMARK SMILES IDX 5 23 6 24 4 26 2 27 3 28 1 29
REMARK H PARENT 7 25
ROOT
ATOM      1  C   UNL     1     117.849  94.683 121.569  1.00  0.00     0.042 A 
ATOM      2  C   UNL     1     115.594  95.029 122.366  1.00  0.00     0.041 A 
ATOM      3  C   UNL     1     116.963  95.275 122.470  1.00  0.00     0.040 A 
ATOM      4  C   UNL     1     117.365  93.845 120.564  1.00  0.00     0.014 A 
ATOM      5  C   UNL     1     115.111  94.191 121.361  1.00  0.00     0.026 A 
ATOM      6  C   UNL     1     115.996  93.599 120.460  1.00  0.00     0.003 A 
ENDROOT
BRANCH   1   7
ATOM      7  C   UNL     1     119.288  94.942 121.677  1.00  0.00     0.255 C 
ATOM      8  O   UNL     1     119.988  93.977 121.980  1.00  0.00    -0.269 OA
BRANCH   7   9
ATOM      9  N   UNL     1     119.744  96.243 121.427  1.00  0.00    -0.320 N 
ATOM     10  O   UNL     1     118.169  97.793 119.543  1.00  0.00    -0.372 OA
ATOM     11  C   UNL     1     118.982  98.462 120.534  1.00  0.00     0.102 C 
ATOM     12  C   UNL     1     117.878  98.540 118.366  1.00  0.00     0.161 C 
ATOM     13  C   UNL     1     120.423  98.678 120.012  1.00  0.00     0.041 C 
ATOM     14  C   UNL     1     118.997  97.485 121.751  1.00  0.00     0.221 C 
ATOM     15  C   UNL     1     118.307  99.802 120.915  1.00  0.00     0.039 C 
ATOM     16  C   UNL     1     117.157  99.836 118.694  1.00  0.00     0.029 C 
ATOM     17  C   UNL     1     121.106  97.351 119.688  1.00  0.00     0.025 C 
ATOM     18  C   UNL     1     119.553  98.086 122.981  1.00  0.00     0.090 C 
ATOM     19  C   UNL     1     117.955 100.654 119.699  1.00  0.00     0.005 C 
ATOM     20  C   UNL     1     121.098  96.421 120.892  1.00  0.00     0.121 C 
ATOM     21  N   UNL     1     119.990  98.558 123.946  1.00  0.00    -0.196 NA
ENDBRANCH   7   9
ENDBRANCH   1   7
BRANCH   2  22
ATOM     22  N   UNL     1     114.708  95.621 123.266  1.00  0.00    -0.326 N 
ATOM     23  C   UNL     1     114.204  96.925 123.248  1.00  0.00     0.227 C 
ATOM     24  O   UNL     1     114.441  97.809 122.436  1.00  0.00    -0.274 OA
ATOM     25  H   UNL     1     114.391  95.019 124.023  1.00  0.00     0.169 HD
BRANCH  23  26
ATOM     26  C   UNL     1     113.269  97.227 124.377  1.00  0.00     0.082 C 
ATOM     27  C   UNL     1     111.816  96.935 124.187  1.00  0.00    -0.001 C 
ATOM     28  C   UNL     1     112.646  96.082 125.106  1.00  0.00     0.018 C 
ATOM     29  C   UNL     1     110.803  97.872 124.747  1.00  0.00     0.008 C 
ENDBRANCH  23  26
ENDBRANCH   2  22
TORSDOF 4
ENDMDL
MODEL 11
REMARK VINA RESULT:      -7.5     11.312     13.900
REMARK SMILES C[C@@H]1C[C@H]1C(=O)Nc1cccc(C(=O)N2CCC[C@]3(CCCCO3)[C@@H]2C#N)c1
REMARK SMILES IDX 12 1 8 2 28 3 11 4 9 5 10 6 13 7 14 8 15 9 24 10 19 11 23 12
REMARK SMILES IDX 18 13 25 14 20 15 22 16 17 17 26 18 21 19 16 20 27 21 7 22
REMARK SMILES IDX 5 23 6 24 4 26 2 27 3 28 1 29
REMARK H PARENT 7 25
ROOT
ATOM      1  C   UNL     1     117.761  99.942 121.975  1.00  0.00     0.042 A 
ATOM      2  C   UNL     1     116.832 101.422 120.306  1.00  0.00     0.041 A 
ATOM      3  C   UNL     1     117.922 100.731 120.836  1.00  0.00     0.040 A 
ATOM      4  C   UNL     1     116.510  99.844 122.585  1.00  0.00     0.014 A 
ATOM      5  C   UNL     1     115.582 101.323 120.915  1.00  0.00     0.026 A 
ATOM      6  C   UNL     1     115.420 100.535 122.053  1.00  0.00     0.003 A 
ENDROOT
BRANCH   1   7
ATOM      7  C   UNL     1     118.906  99.215 122.533  1.00  0.00     0.255 C 
ATOM      8  O   UNL     1     119.528  99.791 123.424  1.00  0.00    -0.269 OA
BRANCH   7   9
ATOM      9  N   UNL     1     119.192  97.944 122.019  1.00  0.00    -0.320 N 
ATOM     10  O   UNL     1     117.036  96.004 122.173  1.00  0.00    -0.372 OA
ATOM     11  C   UNL     1     118.074  95.859 121.177  1.00  0.00     0.102 C 
ATOM     12  C   UNL     1     116.360  94.809 122.550  1.00  0.00     0.161 C 
ATOM     13  C   UNL     1     119.274  95.061 121.742  1.00  0.00     0.041 C 
ATOM     14  C   UNL     1     118.513  97.322 120.854  1.00  0.00     0.221 C 
ATOM     15  C   UNL     1     117.475  95.177 119.924  1.00  0.00     0.039 C 
ATOM     16  C   UNL     1     115.704  94.141 121.353  1.00  0.00     0.029 C 
ATOM     17  C   UNL     1     119.897  95.764 122.947  1.00  0.00     0.025 C 
ATOM     18  C   UNL     1     119.383  97.426 119.665  1.00  0.00     0.090 C 
ATOM     19  C   UNL     1     116.723  93.891 120.253  1.00  0.00     0.005 C 
ATOM     20  C   UNL     1     120.307  97.188 122.599  1.00  0.00     0.121 C 
ATOM     21  N   UNL     1     120.066  97.508 118.731  1.00  0.00    -0.196 NA
ENDBRANCH   7   9
ENDBRANCH   1   7
BRANCH   2  22
ATOM     22  N   UNL     1     116.993 102.211 119.166  1.00  0.00    -0.326 N 
ATOM     23  C   UNL     1     117.255 101.792 117.859  1.00  0.00     0.227 C 
ATOM     24  O   UNL     1     117.398 100.647 117.452  1.00  0.00    -0.274 OA
ATOM     25  H   UNL     1     116.900 103.213 119.316  1.00  0.00     0.169 HD
BRANCH  23  26
ATOM     26  C   UNL     1     117.369 102.915 116.876  1.00  0.00     0.082 C 
ATOM     27  C   UNL     1     116.202 103.835 116.717  1.00  0.00    -0.001 C 
ATOM     28  C   UNL     1     117.453 104.311 117.402  1.00  0.00     0.018 C 
ATOM     29  C   UNL     1     115.852 104.343 115.361  1.00  0.00     0.008 C 
ENDBRANCH  23  26
ENDBRANCH   2  22
TORSDOF 4
ENDMDL
MODEL 12
REMARK VINA RESULT:      -7.3      3.516      5.248
REMARK SMILES C[C@@H]1C[C@H]1C(=O)Nc1cccc(C(=O)N2CCC[C@]3(CCCCO3)[C@@H]2C#N)c1
REMARK SMILES IDX 12 1 8 2 28 3 11 4 9 5 10 6 13 7 14 8 15 9 24 10 19 11 23 12
REMARK SMILES IDX 18 13 25 14 20 15 22 16 17 17 26 18 21 19 16 20 27 21 7 22
REMARK SMILES IDX 5 23 6 24 4 26 2 27 3 28 1 29
REMARK H PARENT 7 25
ROOT
ATOM      1  C   UNL     1     105.690  94.478 118.036  1.00  0.00     0.042 A 
ATOM      2  C   UNL     1     103.610  94.219 119.239  1.00  0.00     0.041 A 
ATOM      3  C   UNL     1     104.644  93.669 118.482  1.00  0.00     0.040 A 
ATOM      4  C   UNL     1     105.701  95.838 118.348  1.00  0.00     0.014 A 
ATOM      5  C   UNL     1     103.622  95.578 119.551  1.00  0.00     0.026 A 
ATOM      6  C   UNL     1     104.666  96.387 119.106  1.00  0.00     0.003 A 
ENDROOT
BRANCH   1   7
ATOM      7  C   UNL     1     106.778  93.900 117.241  1.00  0.00     0.255 C 
ATOM      8  O   UNL     1     107.900  93.954 117.742  1.00  0.00    -0.269 OA
BRANCH   7   9
ATOM      9  N   UNL     1     106.458  93.338 115.998  1.00  0.00    -0.320 N 
ATOM     10  O   UNL     1     104.302  94.631 114.544  1.00  0.00    -0.372 OA
ATOM     11  C   UNL     1     105.303  93.867 113.832  1.00  0.00     0.102 C 
ATOM     12  C   UNL     1     103.040  94.764 113.896  1.00  0.00     0.161 C 
ATOM     13  C   UNL     1     104.905  92.374 113.750  1.00  0.00     0.041 C 
ATOM     14  C   UNL     1     106.598  94.027 114.689  1.00  0.00     0.221 C 
ATOM     15  C   UNL     1     105.497  94.484 112.426  1.00  0.00     0.039 C 
ATOM     16  C   UNL     1     103.182  95.423 112.535  1.00  0.00     0.029 C 
ATOM     17  C   UNL     1     104.766  91.754 115.140  1.00  0.00     0.025 C 
ATOM     18  C   UNL     1     107.817  93.546 114.008  1.00  0.00     0.090 C 
ATOM     19  C   UNL     1     104.182  94.667 111.674  1.00  0.00     0.005 C 
ATOM     20  C   UNL     1     106.042  91.933 115.950  1.00  0.00     0.121 C 
ATOM     21  N   UNL     1     108.774  93.167 113.474  1.00  0.00    -0.196 NA
ENDBRANCH   7   9
ENDBRANCH   1   7
BRANCH   2  22
ATOM     22  N   UNL     1     102.564  93.410 119.684  1.00  0.00    -0.326 N 
ATOM     23  C   UNL     1     102.197  93.124 121.002  1.00  0.00     0.227 C 
ATOM     24  O   UNL     1     102.722  93.528 122.031  1.00  0.00    -0.274 OA
ATOM     25  H   UNL     1     102.002  92.984 118.950  1.00  0.00     0.169 HD
BRANCH  23  26
ATOM     26  C   UNL     1     101.017  92.211 121.117  1.00  0.00     0.082 C 
ATOM     27  C   UNL     1     101.239  90.744 120.939  1.00  0.00    -0.001 C 
ATOM     28  C   UNL     1     100.936  91.304 122.301  1.00  0.00     0.018 C 
ATOM     29  C   UNL     1     100.219  89.932 120.219  1.00  0.00     0.008 C 
ENDBRANCH  23  26
ENDBRANCH   2  22
TORSDOF 4
ENDMDL
MODEL 13
REMARK VINA RESULT:      -7.3      9.708     13.482
REMARK SMILES C[C@@H]1C[C@H]1C(=O)Nc1cccc(C(=O)N2CCC[C@]3(CCCCO3)[C@@H]2C#N)c1
REMARK SMILES IDX 12 1 8 2 28 3 11 4 9 5 10 6 13 7 14 8 15 9 24 10 19 11 23 12
REMARK SMILES IDX 18 13 25 14 20 15 22 16 17 17 26 18 21 19 16 20 27 21 7 22
REMARK SMILES IDX 5 23 6 24 4 26 2 27 3 28 1 29
REMARK H PARENT 7 25
ROOT
ATOM      1  C   UNL     1     118.371 100.149 121.529  1.00  0.00     0.042 A 
ATOM      2  C   UNL     1     116.327 101.244 120.850  1.00  0.00     0.041 A 
ATOM      3  C   UNL     1     116.999 100.347 121.681  1.00  0.00     0.040 A 
ATOM      4  C   UNL     1     119.073 100.849 120.547  1.00  0.00     0.014 A 
ATOM      5  C   UNL     1     117.028 101.944 119.869  1.00  0.00     0.026 A 
ATOM      6  C   UNL     1     118.401 101.747 119.717  1.00  0.00     0.003 A 
ENDROOT
BRANCH   1   7
ATOM      7  C   UNL     1     119.078  99.206 122.402  1.00  0.00     0.255 C 
ATOM      8  O   UNL     1     119.402  99.635 123.509  1.00  0.00    -0.269 OA
BRANCH   7   9
ATOM      9  N   UNL     1     119.320  97.914 121.918  1.00  0.00    -0.320 N 
ATOM     10  O   UNL     1     117.104  96.049 122.139  1.00  0.00    -0.372 OA
ATOM     11  C   UNL     1     118.128  95.846 121.137  1.00  0.00     0.102 C 
ATOM     12  C   UNL     1     116.395  94.885 122.551  1.00  0.00     0.161 C 
ATOM     13  C   UNL     1     119.308  95.024 121.711  1.00  0.00     0.041 C 
ATOM     14  C   UNL     1     118.609  97.286 120.774  1.00  0.00     0.221 C 
ATOM     15  C   UNL     1     117.495  95.153 119.907  1.00  0.00     0.039 C 
ATOM     16  C   UNL     1     115.707  94.209 121.377  1.00  0.00     0.029 C 
ATOM     17  C   UNL     1     119.964  95.737 122.892  1.00  0.00     0.025 C 
ATOM     18  C   UNL     1     119.471  97.333 119.575  1.00  0.00     0.090 C 
ATOM     19  C   UNL     1     116.707  93.900 120.274  1.00  0.00     0.005 C 
ATOM     20  C   UNL     1     120.416  97.138 122.506  1.00  0.00     0.121 C 
ATOM     21  N   UNL     1     120.147  97.371 118.634  1.00  0.00    -0.196 NA
ENDBRANCH   7   9
ENDBRANCH   1   7
BRANCH   2  22
ATOM     22  N   UNL     1     114.954 101.442 121.002  1.00  0.00    -0.326 N 
ATOM     23  C   UNL     1     113.914 100.836 120.292  1.00  0.00     0.227 C 
ATOM     24  O   UNL     1     114.000 100.010 119.394  1.00  0.00    -0.274 OA
ATOM     25  H   UNL     1     114.689 102.107 121.725  1.00  0.00     0.169 HD
BRANCH  23  26
ATOM     26  C   UNL     1     112.551 101.285 120.717  1.00  0.00     0.082 C 
ATOM     27  C   UNL     1     111.628 101.825 119.674  1.00  0.00    -0.001 C 
ATOM     28  C   UNL     1     111.372 100.475 120.285  1.00  0.00     0.018 C 
ATOM     29  C   UNL     1     110.743 102.977 120.005  1.00  0.00     0.008 C 
ENDBRANCH  23  26
ENDBRANCH   2  22
TORSDOF 4
ENDMDL
MODEL 14
REMARK VINA RESULT:      -7.3      7.707     12.911
REMARK SMILES C[C@@H]1C[C@H]1C(=O)Nc1cccc(C(=O)N2CCC[C@]3(CCCCO3)[C@@H]2C#N)c1
REMARK SMILES IDX 12 1 8 2 28 3 11 4 9 5 10 6 13 7 14 8 15 9 24 10 19 11 23 12
REMARK SMILES IDX 18 13 25 14 20 15 22 16 17 17 26 18 21 19 16 20 27 21 7 22
REMARK SMILES IDX 5 23 6 24 4 26 2 27 3 28 1 29
REMARK H PARENT 7 25
ROOT
ATOM      1  C   UNL     1     117.314  96.318 122.543  1.00  0.00     0.042 A 
ATOM      2  C   UNL     1     114.925  96.264 122.902  1.00  0.00     0.041 A 
ATOM      3  C   UNL     1     116.018  96.237 122.035  1.00  0.00     0.040 A 
ATOM      4  C   UNL     1     117.519  96.425 123.919  1.00  0.00     0.014 A 
ATOM      5  C   UNL     1     115.130  96.371 124.277  1.00  0.00     0.026 A 
ATOM      6  C   UNL     1     116.425  96.452 124.786  1.00  0.00     0.003 A 
ENDROOT
BRANCH   1   7
ATOM      7  C   UNL     1     118.464  96.289 121.632  1.00  0.00     0.255 C 
ATOM      8  O   UNL     1     118.746  95.191 121.154  1.00  0.00    -0.269 OA
BRANCH   7   9
ATOM      9  N   UNL     1     119.133  97.493 121.379  1.00  0.00    -0.320 N 
ATOM     10  O   UNL     1     117.912  99.224 119.392  1.00  0.00    -0.372 OA
ATOM     11  C   UNL     1     118.778  99.781 120.408  1.00  0.00     0.102 C 
ATOM     12  C   UNL     1     117.797  99.976 118.188  1.00  0.00     0.161 C 
ATOM     13  C   UNL     1     120.257  99.750 119.951  1.00  0.00     0.041 C 
ATOM     14  C   UNL     1     118.583  98.847 121.643  1.00  0.00     0.221 C 
ATOM     15  C   UNL     1     118.311 101.221 120.729  1.00  0.00     0.039 C 
ATOM     16  C   UNL     1     117.281 101.379 118.457  1.00  0.00     0.029 C 
ATOM     17  C   UNL     1     120.731  98.322 119.686  1.00  0.00     0.025 C 
ATOM     18  C   UNL     1     119.173  99.384 122.885  1.00  0.00     0.090 C 
ATOM     19  C   UNL     1     118.154 102.085 119.482  1.00  0.00     0.005 C 
ATOM     20  C   UNL     1     120.520  97.438 120.906  1.00  0.00     0.121 C 
ATOM     21  N   UNL     1     119.637  99.806 123.862  1.00  0.00    -0.196 NA
ENDBRANCH   7   9
ENDBRANCH   1   7
BRANCH   2  22
ATOM     22  N   UNL     1     113.629  96.183 122.393  1.00  0.00    -0.326 N 
ATOM     23  C   UNL     1     112.959  95.053 121.918  1.00  0.00     0.227 C 
ATOM     24  O   UNL     1     113.378  93.905 121.852  1.00  0.00    -0.274 OA
ATOM     25  H   UNL     1     113.114  97.061 122.377  1.00  0.00     0.169 HD
BRANCH  23  26
ATOM     26  C   UNL     1     111.567  95.330 121.442  1.00  0.00     0.082 C 
ATOM     27  C   UNL     1     111.264  96.688 120.900  1.00  0.00    -0.001 C 
ATOM     28  C   UNL     1     111.341  95.505 119.976  1.00  0.00     0.018 C 
ATOM     29  C   UNL     1     109.948  97.319 121.200  1.00  0.00     0.008 C 
ENDBRANCH  23  26
ENDBRANCH   2  22
TORSDOF 4
ENDMDL
MODEL 15
REMARK VINA RESULT:      -7.2     11.848     14.414
REMARK SMILES C[C@@H]1C[C@H]1C(=O)Nc1cccc(C(=O)N2CCC[C@]3(CCCCO3)[C@@H]2C#N)c1
REMARK SMILES IDX 12 1 8 2 28 3 11 4 9 5 10 6 13 7 14 8 15 9 24 10 19 11 23 12
REMARK SMILES IDX 18 13 25 14 20 15 22 16 17 17 26 18 21 19 16 20 27 21 7 22
REMARK SMILES IDX 5 23 6 24 4 26 2 27 3 28 1 29
REMARK H PARENT 7 25
ROOT
ATOM      1  C   UNL     1     117.055  99.882 121.738  1.00  0.00     0.042 A 
ATOM      2  C   UNL     1     117.614 101.696 120.243  1.00  0.00     0.041 A 
ATOM      3  C   UNL     1     116.989 100.471 120.475  1.00  0.00     0.040 A 
ATOM      4  C   UNL     1     117.747 100.519 122.769  1.00  0.00     0.014 A 
ATOM      5  C   UNL     1     118.305 102.332 121.274  1.00  0.00     0.026 A 
ATOM      6  C   UNL     1     118.372 101.745 122.536  1.00  0.00     0.003 A 
ENDROOT
BRANCH   1   7
ATOM      7  C   UNL     1     116.397  98.595 121.983  1.00  0.00     0.255 C 
ATOM      8  O   UNL     1     115.167  98.611 121.994  1.00  0.00    -0.269 OA
BRANCH   7   9
ATOM      9  N   UNL     1     117.207  97.468 122.178  1.00  0.00    -0.320 N 
ATOM     10  O   UNL     1     119.408  97.157 120.308  1.00  0.00    -0.372 OA
ATOM     11  C   UNL     1     119.477  96.550 121.619  1.00  0.00     0.102 C 
ATOM     12  C   UNL     1     120.204  96.549 119.295  1.00  0.00     0.161 C 
ATOM     13  C   UNL     1     118.837  95.141 121.611  1.00  0.00     0.041 C 
ATOM     14  C   UNL     1     118.648  97.505 122.535  1.00  0.00     0.221 C 
ATOM     15  C   UNL     1     120.956  96.503 122.071  1.00  0.00     0.039 C 
ATOM     16  C   UNL     1     121.674  96.539 119.677  1.00  0.00     0.029 C 
ATOM     17  C   UNL     1     117.362  95.197 121.215  1.00  0.00     0.025 C 
ATOM     18  C   UNL     1     118.805  97.220 123.975  1.00  0.00     0.090 C 
ATOM     19  C   UNL     1     121.874  95.872 121.029  1.00  0.00     0.005 C 
ATOM     20  C   UNL     1     116.587  96.140 122.122  1.00  0.00     0.121 C 
ATOM     21  N   UNL     1     118.928  96.997 125.107  1.00  0.00    -0.196 NA
ENDBRANCH   7   9
ENDBRANCH   1   7
BRANCH   2  22
ATOM     22  N   UNL     1     117.548 102.285 118.980  1.00  0.00    -0.326 N 
ATOM     23  C   UNL     1     117.522 101.651 117.735  1.00  0.00     0.227 C 
ATOM     24  O   UNL     1     117.552 100.450 117.503  1.00  0.00    -0.274 OA
ATOM     25  H   UNL     1     117.509 103.302 118.977  1.00  0.00     0.169 HD
BRANCH  23  26
ATOM     26  C   UNL     1     117.449 102.597 116.576  1.00  0.00     0.082 C 
ATOM     27  C   UNL     1     116.639 103.843 116.732  1.00  0.00    -0.001 C 
ATOM     28  C   UNL     1     118.140 103.916 116.695  1.00  0.00     0.018 C 
ATOM     29  C   UNL     1     115.836 104.341 115.580  1.00  0.00     0.008 C 
ENDBRANCH  23  26
ENDBRANCH   2  22
TORSDOF 4
ENDMDL
