MODEL 1
REMARK VINA RESULT:      -8.6      0.000      0.000
REMARK SMILES O=C1COc2ccc(C(=O)N3CCCC[C@@H]3c3ccc(F)cc3)cc2N1
REMARK SMILES IDX 11 1 16 2 15 3 14 4 13 5 12 6 17 7 20 8 19 9 22 10 18 11
REMARK SMILES IDX 23 12 21 13 9 14 10 15 8 16 24 17 7 18 25 19 6 20 26 21 5 22
REMARK SMILES IDX 2 23 4 24 1 25 3 26
REMARK H PARENT 26 27
ROOT
ATOM      1  N   UNL     1     119.029  96.933 120.240  1.00  0.00    -0.332 N 
ATOM      2  C   UNL     1     118.487  96.801 121.619  1.00  0.00     0.115 C 
ATOM      3  C   UNL     1     119.575  96.682 122.703  1.00  0.00     0.030 C 
ATOM      4  C   UNL     1     120.729  95.767 122.319  1.00  0.00     0.004 C 
ATOM      5  C   UNL     1     121.306  96.201 120.981  1.00  0.00     0.022 C 
ATOM      6  C   UNL     1     120.244  96.184 119.892  1.00  0.00     0.120 C 
ENDROOT
BRANCH   2   7
ATOM      7  C   UNL     1     117.411  95.729 121.755  1.00  0.00    -0.025 A 
ATOM      8  C   UNL     1     115.444  93.768 122.003  1.00  0.00     0.123 A 
ATOM      9  C   UNL     1     115.590  94.738 122.996  1.00  0.00     0.039 A 
ATOM     10  C   UNL     1     116.281  93.778 120.889  1.00  0.00     0.039 A 
ATOM     11  C   UNL     1     116.574  95.719 122.871  1.00  0.00     0.009 A 
ATOM     12  C   UNL     1     117.265  94.758 120.764  1.00  0.00     0.009 A 
ATOM     13  F   UNL     1     114.498  92.826 122.123  1.00  0.00    -0.207 F 
ENDBRANCH   2   7
BRANCH   1  14
ATOM     14  C   UNL     1     118.355  97.581 119.188  1.00  0.00     0.254 C 
ATOM     15  O   UNL     1     117.805  97.023 118.239  1.00  0.00    -0.269 OA
BRANCH  14  16
ATOM     16  C   UNL     1     118.274  99.046 119.201  1.00  0.00     0.042 A 
ATOM     17  C   UNL     1     117.836  99.729 118.065  1.00  0.00     0.044 A 
ATOM     18  C   UNL     1     118.642  99.755 120.345  1.00  0.00     0.018 A 
ATOM     19  C   UNL     1     117.759 101.123 118.085  1.00  0.00     0.084 A 
ATOM     20  C   UNL     1     118.576 101.149 120.357  1.00  0.00     0.049 A 
ATOM     21  N   UNL     1     117.356 101.812 116.937  1.00  0.00    -0.320 N 
ATOM     22  C   UNL     1     118.124 101.833 119.228  1.00  0.00     0.143 A 
ATOM     23  C   UNL     1     117.190 103.178 116.938  1.00  0.00     0.262 C 
ATOM     24  O   UNL     1     118.123 103.198 119.281  1.00  0.00    -0.482 OA
ATOM     25  O   UNL     1     116.903 103.835 115.938  1.00  0.00    -0.271 OA
ATOM     26  C   UNL     1     117.294 103.814 118.313  1.00  0.00     0.329 C 
ATOM     27  H   UNL     1     117.199 101.291 116.080  1.00  0.00     0.170 HD
ENDBRANCH  14  16
ENDBRANCH   1  14
TORSDOF 3
ENDMDL
MODEL 2
REMARK VINA RESULT:      -8.4      2.618      4.067
REMARK SMILES O=C1COc2ccc(C(=O)N3CCCC[C@@H]3c3ccc(F)cc3)cc2N1
REMARK SMILES IDX 11 1 16 2 15 3 14 4 13 5 12 6 17 7 20 8 19 9 22 10 18 11
REMARK SMILES IDX 23 12 21 13 9 14 10 15 8 16 24 17 7 18 25 19 6 20 26 21 5 22
REMARK SMILES IDX 2 23 4 24 1 25 3 26
REMARK H PARENT 26 27
ROOT
ATOM      1  N   UNL     1     117.350  96.641 121.730  1.00  0.00    -0.332 N 
ATOM      2  C   UNL     1     118.012  96.309 120.439  1.00  0.00     0.115 C 
ATOM      3  C   UNL     1     117.359  95.129 119.695  1.00  0.00     0.030 C 
ATOM      4  C   UNL     1     116.976  93.966 120.600  1.00  0.00     0.004 C 
ATOM      5  C   UNL     1     116.107  94.469 121.742  1.00  0.00     0.022 C 
ATOM      6  C   UNL     1     116.822  95.542 122.548  1.00  0.00     0.120 C 
ENDROOT
BRANCH   2   7
ATOM      7  C   UNL     1     119.526  96.163 120.546  1.00  0.00    -0.025 A 
ATOM      8  C   UNL     1     122.295  95.896 120.744  1.00  0.00     0.123 A 
ATOM      9  C   UNL     1     121.477  95.474 121.793  1.00  0.00     0.039 A 
ATOM     10  C   UNL     1     121.729  96.452 119.598  1.00  0.00     0.039 A 
ATOM     11  C   UNL     1     120.093  95.607 121.693  1.00  0.00     0.009 A 
ATOM     12  C   UNL     1     120.344  96.585 119.498  1.00  0.00     0.009 A 
ATOM     13  F   UNL     1     123.625  95.767 120.838  1.00  0.00    -0.207 F 
ENDBRANCH   2   7
BRANCH   1  14
ATOM     14  C   UNL     1     117.359  97.923 122.310  1.00  0.00     0.254 C 
ATOM     15  O   UNL     1     117.141  98.174 123.496  1.00  0.00    -0.269 OA
BRANCH  14  16
ATOM     16  C   UNL     1     117.660  99.080 121.459  1.00  0.00     0.042 A 
ATOM     17  C   UNL     1     116.634  99.708 120.749  1.00  0.00     0.044 A 
ATOM     18  C   UNL     1     118.971  99.545 121.351  1.00  0.00     0.018 A 
ATOM     19  C   UNL     1     116.926 100.809 119.943  1.00  0.00     0.084 A 
ATOM     20  C   UNL     1     119.261 100.638 120.534  1.00  0.00     0.049 A 
ATOM     21  N   UNL     1     115.908 101.418 119.202  1.00  0.00    -0.320 N 
ATOM     22  C   UNL     1     118.235 101.277 119.837  1.00  0.00     0.143 A 
ATOM     23  C   UNL     1     116.137 102.553 118.459  1.00  0.00     0.262 C 
ATOM     24  O   UNL     1     118.585 102.312 119.017  1.00  0.00    -0.482 OA
ATOM     25  O   UNL     1     115.293 103.083 117.740  1.00  0.00    -0.271 OA
ATOM     26  C   UNL     1     117.510 103.166 118.672  1.00  0.00     0.329 C 
ATOM     27  H   UNL     1     114.983 101.000 119.204  1.00  0.00     0.170 HD
ENDBRANCH  14  16
ENDBRANCH   1  14
TORSDOF 3
ENDMDL
MODEL 3
REMARK VINA RESULT:      -8.2      4.484      6.886
REMARK SMILES O=C1COc2ccc(C(=O)N3CCCC[C@@H]3c3ccc(F)cc3)cc2N1
REMARK SMILES IDX 11 1 16 2 15 3 14 4 13 5 12 6 17 7 20 8 19 9 22 10 18 11
REMARK SMILES IDX 23 12 21 13 9 14 10 15 8 16 24 17 7 18 25 19 6 20 26 21 5 22
REMARK SMILES IDX 2 23 4 24 1 25 3 26
REMARK H PARENT 26 27
ROOT
ATOM      1  N   UNL     1     119.828  96.242 120.807  1.00  0.00    -0.332 N 
ATOM      2  C   UNL     1     119.126  97.542 120.629  1.00  0.00     0.115 C 
ATOM      3  C   UNL     1     119.474  98.256 119.308  1.00  0.00     0.030 C 
ATOM      4  C   UNL     1     120.953  98.211 118.954  1.00  0.00     0.004 C 
ATOM      5  C   UNL     1     121.440  96.771 118.965  1.00  0.00     0.022 C 
ATOM      6  C   UNL     1     121.209  96.122 120.321  1.00  0.00     0.120 C 
ENDROOT
BRANCH   2   7
ATOM      7  C   UNL     1     119.232  98.466 121.836  1.00  0.00    -0.025 A 
ATOM      8  C   UNL     1     119.427 100.158 124.045  1.00  0.00     0.123 A 
ATOM      9  C   UNL     1     119.029 100.669 122.809  1.00  0.00     0.039 A 
ATOM     10  C   UNL     1     119.727  98.803 124.176  1.00  0.00     0.039 A 
ATOM     11  C   UNL     1     118.932  99.822 121.704  1.00  0.00     0.009 A 
ATOM     12  C   UNL     1     119.630  97.957 123.072  1.00  0.00     0.009 A 
ATOM     13  F   UNL     1     119.520 100.971 125.106  1.00  0.00    -0.207 F 
ENDBRANCH   2   7
BRANCH   1  14
ATOM     14  C   UNL     1     119.325  95.176 121.575  1.00  0.00     0.254 C 
ATOM     15  O   UNL     1     119.995  94.430 122.289  1.00  0.00    -0.269 OA
BRANCH  14  16
ATOM     16  C   UNL     1     117.882  94.910 121.551  1.00  0.00     0.042 A 
ATOM     17  C   UNL     1     117.045  95.529 122.481  1.00  0.00     0.044 A 
ATOM     18  C   UNL     1     117.349  94.034 120.606  1.00  0.00     0.018 A 
ATOM     19  C   UNL     1     115.673  95.275 122.452  1.00  0.00     0.084 A 
ATOM     20  C   UNL     1     115.979  93.771 120.588  1.00  0.00     0.049 A 
ATOM     21  N   UNL     1     114.837  95.865 123.406  1.00  0.00    -0.320 N 
ATOM     22  C   UNL     1     115.139  94.402 121.506  1.00  0.00     0.143 A 
ATOM     23  C   UNL     1     113.471  95.705 123.364  1.00  0.00     0.262 C 
ATOM     24  O   UNL     1     113.813  94.073 121.471  1.00  0.00    -0.482 OA
ATOM     25  O   UNL     1     112.703  96.146 124.216  1.00  0.00    -0.271 OA
ATOM     26  C   UNL     1     112.967  95.010 122.111  1.00  0.00     0.329 C 
ATOM     27  H   UNL     1     115.253  96.410 124.154  1.00  0.00     0.170 HD
ENDBRANCH  14  16
ENDBRANCH   1  14
TORSDOF 3
ENDMDL
MODEL 4
REMARK VINA RESULT:      -8.1      2.715      4.242
REMARK SMILES O=C1COc2ccc(C(=O)N3CCCC[C@@H]3c3ccc(F)cc3)cc2N1
REMARK SMILES IDX 11 1 16 2 15 3 14 4 13 5 12 6 17 7 20 8 19 9 22 10 18 11
REMARK SMILES IDX 23 12 21 13 9 14 10 15 8 16 24 17 7 18 25 19 6 20 26 21 5 22
REMARK SMILES IDX 2 23 4 24 1 25 3 26
REMARK H PARENT 26 27
ROOT
ATOM      1  N   UNL     1     117.515  96.887 121.573  1.00  0.00    -0.332 N 
ATOM      2  C   UNL     1     118.139  96.427 120.302  1.00  0.00     0.115 C 
ATOM      3  C   UNL     1     117.443  95.202 119.680  1.00  0.00     0.030 C 
ATOM      4  C   UNL     1     117.058  94.132 120.692  1.00  0.00     0.004 C 
ATOM      5  C   UNL     1     116.227  94.753 121.803  1.00  0.00     0.022 C 
ATOM      6  C   UNL     1     116.983  95.876 122.496  1.00  0.00     0.120 C 
ENDROOT
BRANCH   2   7
ATOM      7  C   UNL     1     119.651  96.256 120.389  1.00  0.00    -0.025 A 
ATOM      8  C   UNL     1     122.418  95.943 120.547  1.00  0.00     0.123 A 
ATOM      9  C   UNL     1     121.844  96.496 119.402  1.00  0.00     0.039 A 
ATOM     10  C   UNL     1     121.610  95.546 121.612  1.00  0.00     0.039 A 
ATOM     11  C   UNL     1     120.460  96.653 119.324  1.00  0.00     0.009 A 
ATOM     12  C   UNL     1     120.226  95.703 121.533  1.00  0.00     0.009 A 
ATOM     13  F   UNL     1     123.748  95.793 120.623  1.00  0.00    -0.207 F 
ENDBRANCH   2   7
BRANCH   1  14
ATOM     14  C   UNL     1     117.565  98.214 122.039  1.00  0.00     0.254 C 
ATOM     15  O   UNL     1     117.998  98.573 123.133  1.00  0.00    -0.269 OA
BRANCH  14  16
ATOM     16  C   UNL     1     117.075  99.285 121.164  1.00  0.00     0.042 A 
ATOM     17  C   UNL     1     117.982 100.059 120.436  1.00  0.00     0.044 A 
ATOM     18  C   UNL     1     115.706  99.536 121.066  1.00  0.00     0.018 A 
ATOM     19  C   UNL     1     117.510 101.075 119.603  1.00  0.00     0.084 A 
ATOM     20  C   UNL     1     115.239 100.561 120.243  1.00  0.00     0.049 A 
ATOM     21  N   UNL     1     118.417 101.875 118.902  1.00  0.00    -0.320 N 
ATOM     22  C   UNL     1     116.142 101.325 119.503  1.00  0.00     0.143 A 
ATOM     23  C   UNL     1     117.993 102.834 118.010  1.00  0.00     0.262 C 
ATOM     24  O   UNL     1     115.632 102.344 118.749  1.00  0.00    -0.482 OA
ATOM     25  O   UNL     1     118.748 103.605 117.422  1.00  0.00    -0.271 OA
ATOM     26  C   UNL     1     116.500 102.802 117.730  1.00  0.00     0.329 C 
ATOM     27  H   UNL     1     119.411 101.754 119.069  1.00  0.00     0.170 HD
ENDBRANCH  14  16
ENDBRANCH   1  14
TORSDOF 3
ENDMDL
MODEL 5
REMARK VINA RESULT:      -7.7      2.940      3.410
REMARK SMILES O=C1COc2ccc(C(=O)N3CCCC[C@@H]3c3ccc(F)cc3)cc2N1
REMARK SMILES IDX 11 1 16 2 15 3 14 4 13 5 12 6 17 7 20 8 19 9 22 10 18 11
REMARK SMILES IDX 23 12 21 13 9 14 10 15 8 16 24 17 7 18 25 19 6 20 26 21 5 22
REMARK SMILES IDX 2 23 4 24 1 25 3 26
REMARK H PARENT 26 27
ROOT
ATOM      1  N   UNL     1     119.342  98.140 121.346  1.00  0.00    -0.332 N 
ATOM      2  C   UNL     1     119.515  96.759 121.873  1.00  0.00     0.115 C 
ATOM      3  C   UNL     1     120.778  96.051 121.348  1.00  0.00     0.030 C 
ATOM      4  C   UNL     1     121.032  96.265 119.862  1.00  0.00     0.004 C 
ATOM      5  C   UNL     1     121.046  97.753 119.553  1.00  0.00     0.022 C 
ATOM      6  C   UNL     1     119.736  98.413 119.958  1.00  0.00     0.120 C 
ENDROOT
BRANCH   2   7
ATOM      7  C   UNL     1     118.267  95.894 121.745  1.00  0.00    -0.025 A 
ATOM      8  C   UNL     1     115.982  94.309 121.512  1.00  0.00     0.123 A 
ATOM      9  C   UNL     1     116.198  95.056 122.671  1.00  0.00     0.039 A 
ATOM     10  C   UNL     1     116.909  94.355 120.471  1.00  0.00     0.039 A 
ATOM     11  C   UNL     1     117.340  95.848 122.787  1.00  0.00     0.009 A 
ATOM     12  C   UNL     1     118.051  95.146 120.587  1.00  0.00     0.009 A 
ATOM     13  F   UNL     1     114.885  93.549 121.400  1.00  0.00    -0.207 F 
ENDBRANCH   2   7
BRANCH   1  14
ATOM     14  C   UNL     1     118.654  99.161 122.027  1.00  0.00     0.254 C 
ATOM     15  O   UNL     1     118.932  99.588 123.148  1.00  0.00    -0.269 OA
BRANCH  14  16
ATOM     16  C   UNL     1     117.509  99.800 121.368  1.00  0.00     0.042 A 
ATOM     17  C   UNL     1     116.293  99.120 121.270  1.00  0.00     0.044 A 
ATOM     18  C   UNL     1     117.638 101.082 120.833  1.00  0.00     0.018 A 
ATOM     19  C   UNL     1     115.207  99.733 120.644  1.00  0.00     0.084 A 
ATOM     20  C   UNL     1     116.554 101.687 120.196  1.00  0.00     0.049 A 
ATOM     21  N   UNL     1     114.000  99.041 120.512  1.00  0.00    -0.320 N 
ATOM     22  C   UNL     1     115.334 101.015 120.111  1.00  0.00     0.143 A 
ATOM     23  C   UNL     1     112.882  99.637 119.974  1.00  0.00     0.262 C 
ATOM     24  O   UNL     1     114.321 101.638 119.438  1.00  0.00    -0.482 OA
ATOM     25  O   UNL     1     111.820  99.050 119.775  1.00  0.00    -0.271 OA
ATOM     26  C   UNL     1     113.033 101.129 119.728  1.00  0.00     0.329 C 
ATOM     27  H   UNL     1     113.955  98.070 120.806  1.00  0.00     0.170 HD
ENDBRANCH  14  16
ENDBRANCH   1  14
TORSDOF 3
ENDMDL
MODEL 6
REMARK VINA RESULT:      -7.7      1.888      2.494
REMARK SMILES O=C1COc2ccc(C(=O)N3CCCC[C@@H]3c3ccc(F)cc3)cc2N1
REMARK SMILES IDX 11 1 16 2 15 3 14 4 13 5 12 6 17 7 20 8 19 9 22 10 18 11
REMARK SMILES IDX 23 12 21 13 9 14 10 15 8 16 24 17 7 18 25 19 6 20 26 21 5 22
REMARK SMILES IDX 2 23 4 24 1 25 3 26
REMARK H PARENT 26 27
ROOT
ATOM      1  N   UNL     1     119.674  97.627 121.921  1.00  0.00    -0.332 N 
ATOM      2  C   UNL     1     119.512  96.270 122.509  1.00  0.00     0.115 C 
ATOM      3  C   UNL     1     120.746  95.366 122.326  1.00  0.00     0.030 C 
ATOM      4  C   UNL     1     121.375  95.454 120.943  1.00  0.00     0.004 C 
ATOM      5  C   UNL     1     121.681  96.906 120.610  1.00  0.00     0.022 C 
ATOM      6  C   UNL     1     120.424  97.760 120.665  1.00  0.00     0.120 C 
ENDROOT
BRANCH   2   7
ATOM      7  C   UNL     1     118.217  95.577 122.101  1.00  0.00    -0.025 A 
ATOM      8  C   UNL     1     115.848  94.308 121.354  1.00  0.00     0.123 A 
ATOM      9  C   UNL     1     117.000  94.144 120.583  1.00  0.00     0.039 A 
ATOM     10  C   UNL     1     115.881  95.106 122.496  1.00  0.00     0.039 A 
ATOM     11  C   UNL     1     118.184  94.779 120.957  1.00  0.00     0.009 A 
ATOM     12  C   UNL     1     117.065  95.741 122.871  1.00  0.00     0.009 A 
ATOM     13  F   UNL     1     114.710  93.698 120.995  1.00  0.00    -0.207 F 
ENDBRANCH   2   7
BRANCH   1  14
ATOM     14  C   UNL     1     119.001  98.772 122.388  1.00  0.00     0.254 C 
ATOM     15  O   UNL     1     119.044  99.208 123.538  1.00  0.00    -0.269 OA
BRANCH  14  16
ATOM     16  C   UNL     1     118.179  99.539 121.445  1.00  0.00     0.042 A 
ATOM     17  C   UNL     1     118.510 100.862 121.149  1.00  0.00     0.044 A 
ATOM     18  C   UNL     1     117.063  98.948 120.852  1.00  0.00     0.018 A 
ATOM     19  C   UNL     1     117.725 101.586 120.249  1.00  0.00     0.084 A 
ATOM     20  C   UNL     1     116.273  99.678 119.963  1.00  0.00     0.049 A 
ATOM     21  N   UNL     1     118.033 102.923 119.979  1.00  0.00    -0.320 N 
ATOM     22  C   UNL     1     116.611 100.996 119.654  1.00  0.00     0.143 A 
ATOM     23  C   UNL     1     117.335 103.647 119.039  1.00  0.00     0.262 C 
ATOM     24  O   UNL     1     115.777 101.676 118.813  1.00  0.00    -0.482 OA
ATOM     25  O   UNL     1     117.523 104.841 118.816  1.00  0.00    -0.271 OA
ATOM     26  C   UNL     1     116.361 102.820 118.218  1.00  0.00     0.329 C 
ATOM     27  H   UNL     1     118.779 103.371 120.501  1.00  0.00     0.170 HD
ENDBRANCH  14  16
ENDBRANCH   1  14
TORSDOF 3
ENDMDL
MODEL 7
REMARK VINA RESULT:      -7.7      4.154      6.943
REMARK SMILES O=C1COc2ccc(C(=O)N3CCCC[C@@H]3c3ccc(F)cc3)cc2N1
REMARK SMILES IDX 11 1 16 2 15 3 14 4 13 5 12 6 17 7 20 8 19 9 22 10 18 11
REMARK SMILES IDX 23 12 21 13 9 14 10 15 8 16 24 17 7 18 25 19 6 20 26 21 5 22
REMARK SMILES IDX 2 23 4 24 1 25 3 26
REMARK H PARENT 26 27
ROOT
ATOM      1  N   UNL     1     118.505  96.496 122.315  1.00  0.00    -0.332 N 
ATOM      2  C   UNL     1     118.382  96.882 120.883  1.00  0.00     0.115 C 
ATOM      3  C   UNL     1     119.389  96.167 119.962  1.00  0.00     0.030 C 
ATOM      4  C   UNL     1     120.794  96.075 120.539  1.00  0.00     0.004 C 
ATOM      5  C   UNL     1     120.741  95.443 121.921  1.00  0.00     0.022 C 
ATOM      6  C   UNL     1     119.845  96.238 122.857  1.00  0.00     0.120 C 
ENDROOT
BRANCH   2   7
ATOM      7  C   UNL     1     118.353  98.389 120.656  1.00  0.00    -0.025 A 
ATOM      8  C   UNL     1     118.299 101.147 120.238  1.00  0.00     0.123 A 
ATOM      9  C   UNL     1     117.431 100.317 119.527  1.00  0.00     0.039 A 
ATOM     10  C   UNL     1     119.193 100.598 121.156  1.00  0.00     0.039 A 
ATOM     11  C   UNL     1     117.458  98.938 119.736  1.00  0.00     0.009 A 
ATOM     12  C   UNL     1     119.220  99.219 121.366  1.00  0.00     0.009 A 
ATOM     13  F   UNL     1     118.272 102.471 120.038  1.00  0.00    -0.207 F 
ENDBRANCH   2   7
BRANCH   1  14
ATOM     14  C   UNL     1     117.440  96.540 123.235  1.00  0.00     0.254 C 
ATOM     15  O   UNL     1     117.496  97.008 124.372  1.00  0.00    -0.269 OA
BRANCH  14  16
ATOM     16  C   UNL     1     116.138  95.999 122.831  1.00  0.00     0.042 A 
ATOM     17  C   UNL     1     115.006  96.816 122.858  1.00  0.00     0.044 A 
ATOM     18  C   UNL     1     116.029  94.667 122.430  1.00  0.00     0.018 A 
ATOM     19  C   UNL     1     113.770  96.297 122.470  1.00  0.00     0.084 A 
ATOM     20  C   UNL     1     114.789  94.147 122.055  1.00  0.00     0.049 A 
ATOM     21  N   UNL     1     112.628  97.102 122.530  1.00  0.00    -0.320 N 
ATOM     22  C   UNL     1     113.660  94.967 122.065  1.00  0.00     0.143 A 
ATOM     23  C   UNL     1     111.406  96.654 122.082  1.00  0.00     0.262 C 
ATOM     24  O   UNL     1     112.466  94.393 121.733  1.00  0.00    -0.482 OA
ATOM     25  O   UNL     1     110.364  97.299 122.176  1.00  0.00    -0.271 OA
ATOM     26  C   UNL     1     111.462  95.318 121.361  1.00  0.00     0.329 C 
ATOM     27  H   UNL     1     112.704  98.032 122.929  1.00  0.00     0.170 HD
ENDBRANCH  14  16
ENDBRANCH   1  14
TORSDOF 3
ENDMDL
MODEL 8
REMARK VINA RESULT:      -7.7      3.857      5.172
REMARK SMILES O=C1COc2ccc(C(=O)N3CCCC[C@@H]3c3ccc(F)cc3)cc2N1
REMARK SMILES IDX 11 1 16 2 15 3 14 4 13 5 12 6 17 7 20 8 19 9 22 10 18 11
REMARK SMILES IDX 23 12 21 13 9 14 10 15 8 16 24 17 7 18 25 19 6 20 26 21 5 22
REMARK SMILES IDX 2 23 4 24 1 25 3 26
REMARK H PARENT 26 27
ROOT
ATOM      1  N   UNL     1     117.003  96.349 121.729  1.00  0.00    -0.332 N 
ATOM      2  C   UNL     1     117.719  96.062 120.456  1.00  0.00     0.115 C 
ATOM      3  C   UNL     1     117.176  94.832 119.705  1.00  0.00     0.030 C 
ATOM      4  C   UNL     1     116.863  93.647 120.608  1.00  0.00     0.004 C 
ATOM      5  C   UNL     1     115.931  94.086 121.726  1.00  0.00     0.022 C 
ATOM      6  C   UNL     1     116.542  95.215 122.541  1.00  0.00     0.120 C 
ENDROOT
BRANCH   2   7
ATOM      7  C   UNL     1     119.236  96.034 120.599  1.00  0.00    -0.025 A 
ATOM      8  C   UNL     1     122.013  95.982 120.861  1.00  0.00     0.123 A 
ATOM      9  C   UNL     1     121.430  96.545 119.725  1.00  0.00     0.039 A 
ATOM     10  C   UNL     1     121.208  95.445 121.865  1.00  0.00     0.039 A 
ATOM     11  C   UNL     1     120.042  96.570 119.595  1.00  0.00     0.009 A 
ATOM     12  C   UNL     1     119.820  95.471 121.735  1.00  0.00     0.009 A 
ATOM     13  F   UNL     1     123.347  95.958 120.987  1.00  0.00    -0.207 F 
ENDBRANCH   2   7
BRANCH   1  14
ATOM     14  C   UNL     1     116.899  97.630 122.302  1.00  0.00     0.254 C 
ATOM     15  O   UNL     1     117.769  98.188 122.970  1.00  0.00    -0.269 OA
BRANCH  14  16
ATOM     16  C   UNL     1     115.665  98.396 122.093  1.00  0.00     0.042 A 
ATOM     17  C   UNL     1     115.510  99.167 120.940  1.00  0.00     0.044 A 
ATOM     18  C   UNL     1     114.652  98.360 123.052  1.00  0.00     0.018 A 
ATOM     19  C   UNL     1     114.333  99.892 120.746  1.00  0.00     0.084 A 
ATOM     20  C   UNL     1     113.481  99.096 122.861  1.00  0.00     0.049 A 
ATOM     21  N   UNL     1     114.190 100.694 119.610  1.00  0.00    -0.320 N 
ATOM     22  C   UNL     1     113.318  99.855 121.702  1.00  0.00     0.143 A 
ATOM     23  C   UNL     1     113.016 101.360 119.341  1.00  0.00     0.262 C 
ATOM     24  O   UNL     1     112.172 100.590 121.590  1.00  0.00    -0.482 OA
ATOM     25  O   UNL     1     112.865 102.129 118.394  1.00  0.00    -0.271 OA
ATOM     26  C   UNL     1     111.869 100.993 120.267  1.00  0.00     0.329 C 
ATOM     27  H   UNL     1     114.978 100.797 118.979  1.00  0.00     0.170 HD
ENDBRANCH  14  16
ENDBRANCH   1  14
TORSDOF 3
ENDMDL
MODEL 9
REMARK VINA RESULT:      -7.6     17.645     19.623
REMARK SMILES O=C1COc2ccc(C(=O)N3CCCC[C@@H]3c3ccc(F)cc3)cc2N1
REMARK SMILES IDX 11 1 16 2 15 3 14 4 13 5 12 6 17 7 20 8 19 9 22 10 18 11
REMARK SMILES IDX 23 12 21 13 9 14 10 15 8 16 24 17 7 18 25 19 6 20 26 21 5 22
REMARK SMILES IDX 2 23 4 24 1 25 3 26
REMARK H PARENT 26 27
ROOT
ATOM      1  N   UNL     1     121.168  83.195 107.941  1.00  0.00    -0.332 N 
ATOM      2  C   UNL     1     122.080  83.709 109.000  1.00  0.00     0.115 C 
ATOM      3  C   UNL     1     122.908  82.608 109.689  1.00  0.00     0.030 C 
ATOM      4  C   UNL     1     122.117  81.347 110.005  1.00  0.00     0.004 C 
ATOM      5  C   UNL     1     121.436  80.839 108.744  1.00  0.00     0.022 C 
ATOM      6  C   UNL     1     120.517  81.895 108.150  1.00  0.00     0.120 C 
ENDROOT
BRANCH   2   7
ATOM      7  C   UNL     1     121.397  84.635 109.999  1.00  0.00    -0.025 A 
ATOM      8  C   UNL     1     120.146  86.331 111.827  1.00  0.00     0.123 A 
ATOM      9  C   UNL     1     119.976  84.949 111.928  1.00  0.00     0.039 A 
ATOM     10  C   UNL     1     120.940  86.864 110.812  1.00  0.00     0.039 A 
ATOM     11  C   UNL     1     120.602  84.102 111.013  1.00  0.00     0.009 A 
ATOM     12  C   UNL     1     121.566  86.017 109.898  1.00  0.00     0.009 A 
ATOM     13  F   UNL     1     119.546  87.145 112.706  1.00  0.00    -0.207 F 
ENDBRANCH   2   7
BRANCH   1  14
ATOM     14  C   UNL     1     120.742  83.953 106.834  1.00  0.00     0.254 C 
ATOM     15  O   UNL     1     119.573  84.113 106.484  1.00  0.00    -0.269 OA
BRANCH  14  16
ATOM     16  C   UNL     1     121.753  84.632 106.015  1.00  0.00     0.042 A 
ATOM     17  C   UNL     1     122.110  84.106 104.772  1.00  0.00     0.044 A 
ATOM     18  C   UNL     1     122.362  85.797 106.482  1.00  0.00     0.018 A 
ATOM     19  C   UNL     1     123.069  84.757 103.996  1.00  0.00     0.084 A 
ATOM     20  C   UNL     1     123.331  86.439 105.710  1.00  0.00     0.049 A 
ATOM     21  N   UNL     1     123.456  84.213 102.767  1.00  0.00    -0.320 N 
ATOM     22  C   UNL     1     123.677  85.923 104.460  1.00  0.00     0.143 A 
ATOM     23  C   UNL     1     124.338  84.865 101.936  1.00  0.00     0.262 C 
ATOM     24  O   UNL     1     124.663  86.567 103.768  1.00  0.00    -0.482 OA
ATOM     25  O   UNL     1     124.759  84.396 100.880  1.00  0.00    -0.271 OA
ATOM     26  C   UNL     1     124.686  86.274 102.384  1.00  0.00     0.329 C 
ATOM     27  H   UNL     1     123.086  83.309 102.493  1.00  0.00     0.170 HD
ENDBRANCH  14  16
ENDBRANCH   1  14
TORSDOF 3
ENDMDL
MODEL 10
REMARK VINA RESULT:      -7.6      4.286      6.418
REMARK SMILES O=C1COc2ccc(C(=O)N3CCCC[C@@H]3c3ccc(F)cc3)cc2N1
REMARK SMILES IDX 11 1 16 2 15 3 14 4 13 5 12 6 17 7 20 8 19 9 22 10 18 11
REMARK SMILES IDX 23 12 21 13 9 14 10 15 8 16 24 17 7 18 25 19 6 20 26 21 5 22
REMARK SMILES IDX 2 23 4 24 1 25 3 26
REMARK H PARENT 26 27
ROOT
ATOM      1  N   UNL     1     115.704  95.404 122.708  1.00  0.00    -0.332 N 
ATOM      2  C   UNL     1     116.271  95.883 123.998  1.00  0.00     0.115 C 
ATOM      3  C   UNL     1     115.217  96.062 125.107  1.00  0.00     0.030 C 
ATOM      4  C   UNL     1     113.925  96.712 124.631  1.00  0.00     0.004 C 
ATOM      5  C   UNL     1     113.372  95.943 123.442  1.00  0.00     0.022 C 
ATOM      6  C   UNL     1     114.379  95.891 122.303  1.00  0.00     0.120 C 
ENDROOT
BRANCH   2   7
ATOM      7  C   UNL     1     117.177  97.100 123.855  1.00  0.00    -0.025 A 
ATOM      8  C   UNL     1     118.837  99.327 123.592  1.00  0.00     0.123 A 
ATOM      9  C   UNL     1     117.582  99.315 122.980  1.00  0.00     0.039 A 
ATOM     10  C   UNL     1     119.261  98.225 124.334  1.00  0.00     0.039 A 
ATOM     11  C   UNL     1     116.753  98.202 123.112  1.00  0.00     0.009 A 
ATOM     12  C   UNL     1     118.432  97.111 124.466  1.00  0.00     0.009 A 
ATOM     13  F   UNL     1     119.633 100.397 123.466  1.00  0.00    -0.207 F 
ENDBRANCH   2   7
BRANCH   1  14
ATOM     14  C   UNL     1     116.430  94.660 121.759  1.00  0.00     0.254 C 
ATOM     15  O   UNL     1     116.196  93.496 121.432  1.00  0.00    -0.269 OA
BRANCH  14  16
ATOM     16  C   UNL     1     117.559  95.300 121.076  1.00  0.00     0.042 A 
ATOM     17  C   UNL     1     118.866  95.021 121.479  1.00  0.00     0.044 A 
ATOM     18  C   UNL     1     117.326  96.195 120.031  1.00  0.00     0.018 A 
ATOM     19  C   UNL     1     119.936  95.632 120.823  1.00  0.00     0.084 A 
ATOM     20  C   UNL     1     118.397  96.814 119.386  1.00  0.00     0.049 A 
ATOM     21  N   UNL     1     121.245  95.382 121.248  1.00  0.00    -0.320 N 
ATOM     22  C   UNL     1     119.705  96.523 119.776  1.00  0.00     0.143 A 
ATOM     23  C   UNL     1     122.331  95.900 120.579  1.00  0.00     0.262 C 
ATOM     24  O   UNL     1     120.712  97.192 119.141  1.00  0.00    -0.482 OA
ATOM     25  O   UNL     1     123.494  95.765 120.953  1.00  0.00    -0.271 OA
ATOM     26  C   UNL     1     121.983  96.583 119.268  1.00  0.00     0.329 C 
ATOM     27  H   UNL     1     121.392  94.818 122.079  1.00  0.00     0.170 HD
ENDBRANCH  14  16
ENDBRANCH   1  14
TORSDOF 3
ENDMDL
MODEL 11
REMARK VINA RESULT:      -7.5     13.860     16.023
REMARK SMILES O=C1COc2ccc(C(=O)N3CCCC[C@@H]3c3ccc(F)cc3)cc2N1
REMARK SMILES IDX 11 1 16 2 15 3 14 4 13 5 12 6 17 7 20 8 19 9 22 10 18 11
REMARK SMILES IDX 23 12 21 13 9 14 10 15 8 16 24 17 7 18 25 19 6 20 26 21 5 22
REMARK SMILES IDX 2 23 4 24 1 25 3 26
REMARK H PARENT 26 27
ROOT
ATOM      1  N   UNL     1     103.823  94.569 116.515  1.00  0.00    -0.332 N 
ATOM      2  C   UNL     1     105.059  95.362 116.271  1.00  0.00     0.115 C 
ATOM      3  C   UNL     1     104.815  96.882 116.213  1.00  0.00     0.030 C 
ATOM      4  C   UNL     1     103.569  97.278 115.433  1.00  0.00     0.004 C 
ATOM      5  C   UNL     1     102.363  96.530 115.978  1.00  0.00     0.022 C 
ATOM      6  C   UNL     1     102.568  95.025 115.904  1.00  0.00     0.120 C 
ENDROOT
BRANCH   2   7
ATOM      7  C   UNL     1     105.887  94.860 115.094  1.00  0.00    -0.025 A 
ATOM      8  C   UNL     1     107.402  93.941 112.940  1.00  0.00     0.123 A 
ATOM      9  C   UNL     1     106.405  94.896 112.734  1.00  0.00     0.039 A 
ATOM     10  C   UNL     1     107.640  93.446 114.221  1.00  0.00     0.039 A 
ATOM     11  C   UNL     1     105.648  95.355 113.812  1.00  0.00     0.009 A 
ATOM     12  C   UNL     1     106.883  93.905 115.298  1.00  0.00     0.009 A 
ATOM     13  F   UNL     1     108.130  93.501 111.905  1.00  0.00    -0.207 F 
ENDBRANCH   2   7
BRANCH   1  14
ATOM     14  C   UNL     1     103.810  93.307 117.138  1.00  0.00     0.254 C 
ATOM     15  O   UNL     1     104.167  92.249 116.621  1.00  0.00    -0.269 OA
BRANCH  14  16
ATOM     16  C   UNL     1     103.345  93.214 118.527  1.00  0.00     0.042 A 
ATOM     17  C   UNL     1     103.838  94.099 119.487  1.00  0.00     0.044 A 
ATOM     18  C   UNL     1     102.419  92.235 118.889  1.00  0.00     0.018 A 
ATOM     19  C   UNL     1     103.391  94.007 120.806  1.00  0.00     0.084 A 
ATOM     20  C   UNL     1     101.984  92.136 120.211  1.00  0.00     0.049 A 
ATOM     21  N   UNL     1     103.910  94.868 121.778  1.00  0.00    -0.320 N 
ATOM     22  C   UNL     1     102.463  93.031 121.169  1.00  0.00     0.143 A 
ATOM     23  C   UNL     1     103.438  94.864 123.071  1.00  0.00     0.262 C 
ATOM     24  O   UNL     1     102.037  92.859 122.455  1.00  0.00    -0.482 OA
ATOM     25  O   UNL     1     103.908  95.553 123.974  1.00  0.00    -0.271 OA
ATOM     26  C   UNL     1     102.208  93.997 123.279  1.00  0.00     0.329 C 
ATOM     27  H   UNL     1     104.663  95.499 121.523  1.00  0.00     0.170 HD
ENDBRANCH  14  16
ENDBRANCH   1  14
TORSDOF 3
ENDMDL
MODEL 12
REMARK VINA RESULT:      -7.5     13.879     16.069
REMARK SMILES O=C1COc2ccc(C(=O)N3CCCC[C@@H]3c3ccc(F)cc3)cc2N1
REMARK SMILES IDX 11 1 16 2 15 3 14 4 13 5 12 6 17 7 20 8 19 9 22 10 18 11
REMARK SMILES IDX 23 12 21 13 9 14 10 15 8 16 24 17 7 18 25 19 6 20 26 21 5 22
REMARK SMILES IDX 2 23 4 24 1 25 3 26
REMARK H PARENT 26 27
ROOT
ATOM      1  N   UNL     1     105.201  93.191 115.601  1.00  0.00    -0.332 N 
ATOM      2  C   UNL     1     104.163  93.822 114.741  1.00  0.00     0.115 C 
ATOM      3  C   UNL     1     103.465  92.832 113.789  1.00  0.00     0.030 C 
ATOM      4  C   UNL     1     104.412  91.843 113.125  1.00  0.00     0.004 C 
ATOM      5  C   UNL     1     105.233  91.127 114.186  1.00  0.00     0.022 C 
ATOM      6  C   UNL     1     106.021  92.114 115.032  1.00  0.00     0.120 C 
ENDROOT
BRANCH   2   7
ATOM      7  C   UNL     1     104.643  95.078 114.024  1.00  0.00    -0.025 A 
ATOM      8  C   UNL     1     105.521  97.377 112.711  1.00  0.00     0.123 A 
ATOM      9  C   UNL     1     104.213  97.305 113.191  1.00  0.00     0.039 A 
ATOM     10  C   UNL     1     106.389  96.301 112.886  1.00  0.00     0.039 A 
ATOM     11  C   UNL     1     103.775  96.155 113.847  1.00  0.00     0.009 A 
ATOM     12  C   UNL     1     105.951  95.151 113.543  1.00  0.00     0.009 A 
ATOM     13  F   UNL     1     105.943  98.482 112.081  1.00  0.00    -0.207 F 
ENDBRANCH   2   7
BRANCH   1  14
ATOM     14  C   UNL     1     105.577  93.680 116.867  1.00  0.00     0.254 C 
ATOM     15  O   UNL     1     106.607  94.307 117.115  1.00  0.00    -0.269 OA
BRANCH  14  16
ATOM     16  C   UNL     1     104.680  93.450 118.005  1.00  0.00     0.042 A 
ATOM     17  C   UNL     1     104.906  94.110 119.214  1.00  0.00     0.044 A 
ATOM     18  C   UNL     1     103.608  92.566 117.881  1.00  0.00     0.018 A 
ATOM     19  C   UNL     1     104.049  93.889 120.293  1.00  0.00     0.084 A 
ATOM     20  C   UNL     1     102.760  92.337 118.966  1.00  0.00     0.049 A 
ATOM     21  N   UNL     1     104.294  94.521 121.516  1.00  0.00    -0.320 N 
ATOM     22  C   UNL     1     102.975  93.008 120.170  1.00  0.00     0.143 A 
ATOM     23  C   UNL     1     103.429  94.393 122.579  1.00  0.00     0.262 C 
ATOM     24  O   UNL     1     102.141  92.711 121.210  1.00  0.00    -0.482 OA
ATOM     25  O   UNL     1     103.636  94.872 123.692  1.00  0.00    -0.271 OA
ATOM     26  C   UNL     1     102.130  93.682 122.239  1.00  0.00     0.329 C 
ATOM     27  H   UNL     1     105.139  95.072 121.623  1.00  0.00     0.170 HD
ENDBRANCH  14  16
ENDBRANCH   1  14
TORSDOF 3
ENDMDL
MODEL 13
REMARK VINA RESULT:      -7.5     12.951     14.674
REMARK SMILES O=C1COc2ccc(C(=O)N3CCCC[C@@H]3c3ccc(F)cc3)cc2N1
REMARK SMILES IDX 11 1 16 2 15 3 14 4 13 5 12 6 17 7 20 8 19 9 22 10 18 11
REMARK SMILES IDX 23 12 21 13 9 14 10 15 8 16 24 17 7 18 25 19 6 20 26 21 5 22
REMARK SMILES IDX 2 23 4 24 1 25 3 26
REMARK H PARENT 26 27
ROOT
ATOM      1  N   UNL     1     106.036  93.430 114.602  1.00  0.00    -0.332 N 
ATOM      2  C   UNL     1     105.357  93.349 113.280  1.00  0.00     0.115 C 
ATOM      3  C   UNL     1     106.281  92.880 112.139  1.00  0.00     0.030 C 
ATOM      4  C   UNL     1     107.667  93.507 112.171  1.00  0.00     0.004 C 
ATOM      5  C   UNL     1     108.297  93.289 113.537  1.00  0.00     0.022 C 
ATOM      6  C   UNL     1     107.435  93.877 114.643  1.00  0.00     0.120 C 
ENDROOT
BRANCH   2   7
ATOM      7  C   UNL     1     104.573  94.605 112.916  1.00  0.00    -0.025 A 
ATOM      8  C   UNL     1     103.139  96.903 112.250  1.00  0.00     0.123 A 
ATOM      9  C   UNL     1     104.479  97.002 112.627  1.00  0.00     0.039 A 
ATOM     10  C   UNL     1     102.517  95.656 112.206  1.00  0.00     0.039 A 
ATOM     11  C   UNL     1     105.196  95.853 112.960  1.00  0.00     0.009 A 
ATOM     12  C   UNL     1     103.234  94.506 112.539  1.00  0.00     0.009 A 
ATOM     13  F   UNL     1     102.451  98.006 111.929  1.00  0.00    -0.207 F 
ENDBRANCH   2   7
BRANCH   1  14
ATOM     14  C   UNL     1     105.374  93.286 115.836  1.00  0.00     0.254 C 
ATOM     15  O   UNL     1     104.643  92.347 116.150  1.00  0.00    -0.269 OA
BRANCH  14  16
ATOM     16  C   UNL     1     105.561  94.320 116.860  1.00  0.00     0.042 A 
ATOM     17  C   UNL     1     105.214  95.644 116.584  1.00  0.00     0.044 A 
ATOM     18  C   UNL     1     106.092  93.982 118.104  1.00  0.00     0.018 A 
ATOM     19  C   UNL     1     105.391  96.623 117.563  1.00  0.00     0.084 A 
ATOM     20  C   UNL     1     106.280  94.965 119.077  1.00  0.00     0.049 A 
ATOM     21  N   UNL     1     105.079  97.956 117.277  1.00  0.00    -0.320 N 
ATOM     22  C   UNL     1     105.919  96.286 118.808  1.00  0.00     0.143 A 
ATOM     23  C   UNL     1     105.163  98.937 118.238  1.00  0.00     0.262 C 
ATOM     24  O   UNL     1     106.168  97.213 119.780  1.00  0.00    -0.482 OA
ATOM     25  O   UNL     1     104.964 100.130 118.018  1.00  0.00    -0.271 OA
ATOM     26  C   UNL     1     105.430  98.413 119.638  1.00  0.00     0.329 C 
ATOM     27  H   UNL     1     104.799  98.203 116.333  1.00  0.00     0.170 HD
ENDBRANCH  14  16
ENDBRANCH   1  14
TORSDOF 3
ENDMDL
MODEL 14
REMARK VINA RESULT:      -7.4     13.435     15.055
REMARK SMILES O=C1COc2ccc(C(=O)N3CCCC[C@@H]3c3ccc(F)cc3)cc2N1
REMARK SMILES IDX 11 1 16 2 15 3 14 4 13 5 12 6 17 7 20 8 19 9 22 10 18 11
REMARK SMILES IDX 23 12 21 13 9 14 10 15 8 16 24 17 7 18 25 19 6 20 26 21 5 22
REMARK SMILES IDX 2 23 4 24 1 25 3 26
REMARK H PARENT 26 27
ROOT
ATOM      1  N   UNL     1     104.641  95.556 117.702  1.00  0.00    -0.332 N 
ATOM      2  C   UNL     1     103.314  95.041 117.267  1.00  0.00     0.115 C 
ATOM      3  C   UNL     1     102.234  96.135 117.155  1.00  0.00     0.030 C 
ATOM      4  C   UNL     1     102.250  97.137 118.300  1.00  0.00     0.004 C 
ATOM      5  C   UNL     1     103.643  97.728 118.445  1.00  0.00     0.022 C 
ATOM      6  C   UNL     1     104.680  96.643 118.689  1.00  0.00     0.120 C 
ENDROOT
BRANCH   2   7
ATOM      7  C   UNL     1     102.836  93.831 118.061  1.00  0.00    -0.025 A 
ATOM      8  C   UNL     1     101.960  91.616 119.513  1.00  0.00     0.123 A 
ATOM      9  C   UNL     1     101.868  91.618 118.120  1.00  0.00     0.039 A 
ATOM     10  C   UNL     1     102.489  92.721 120.178  1.00  0.00     0.039 A 
ATOM     11  C   UNL     1     102.306  92.726 117.395  1.00  0.00     0.009 A 
ATOM     12  C   UNL     1     102.927  93.829 119.453  1.00  0.00     0.009 A 
ATOM     13  F   UNL     1     101.541  90.552 120.210  1.00  0.00    -0.207 F 
ENDBRANCH   2   7
BRANCH   1  14
ATOM     14  C   UNL     1     105.866  94.948 117.372  1.00  0.00     0.254 C 
ATOM     15  O   UNL     1     106.827  94.816 118.130  1.00  0.00    -0.269 OA
BRANCH  14  16
ATOM     16  C   UNL     1     106.041  94.405 116.020  1.00  0.00     0.042 A 
ATOM     17  C   UNL     1     106.097  95.269 114.924  1.00  0.00     0.044 A 
ATOM     18  C   UNL     1     106.143  93.027 115.828  1.00  0.00     0.018 A 
ATOM     19  C   UNL     1     106.265  94.748 113.641  1.00  0.00     0.084 A 
ATOM     20  C   UNL     1     106.298  92.508 114.543  1.00  0.00     0.049 A 
ATOM     21  N   UNL     1     106.285  95.608 112.538  1.00  0.00    -0.320 N 
ATOM     22  C   UNL     1     106.370  93.371 113.449  1.00  0.00     0.143 A 
ATOM     23  C   UNL     1     106.529  95.143 111.266  1.00  0.00     0.262 C 
ATOM     24  O   UNL     1     106.477  92.805 112.210  1.00  0.00    -0.482 OA
ATOM     25  O   UNL     1     106.489  95.848 110.260  1.00  0.00    -0.271 OA
ATOM     26  C   UNL     1     106.953  93.686 111.210  1.00  0.00     0.329 C 
ATOM     27  H   UNL     1     106.098  96.595 112.682  1.00  0.00     0.170 HD
ENDBRANCH  14  16
ENDBRANCH   1  14
TORSDOF 3
ENDMDL
MODEL 15
REMARK VINA RESULT:      -7.4      4.096      6.571
REMARK SMILES O=C1COc2ccc(C(=O)N3CCCC[C@@H]3c3ccc(F)cc3)cc2N1
REMARK SMILES IDX 11 1 16 2 15 3 14 4 13 5 12 6 17 7 20 8 19 9 22 10 18 11
REMARK SMILES IDX 23 12 21 13 9 14 10 15 8 16 24 17 7 18 25 19 6 20 26 21 5 22
REMARK SMILES IDX 2 23 4 24 1 25 3 26
REMARK H PARENT 26 27
ROOT
ATOM      1  N   UNL     1     119.278  96.945 121.971  1.00  0.00    -0.332 N 
ATOM      2  C   UNL     1     118.729  97.209 120.613  1.00  0.00     0.115 C 
ATOM      3  C   UNL     1     119.492  96.485 119.487  1.00  0.00     0.030 C 
ATOM      4  C   UNL     1     121.006  96.523 119.645  1.00  0.00     0.004 C 
ATOM      5  C   UNL     1     121.392  96.000 121.019  1.00  0.00     0.022 C 
ATOM      6  C   UNL     1     120.733  96.812 122.123  1.00  0.00     0.120 C 
ENDROOT
BRANCH   2   7
ATOM      7  C   UNL     1     118.517  98.688 120.315  1.00  0.00    -0.025 A 
ATOM      8  C   UNL     1     118.129 101.396 119.767  1.00  0.00     0.123 A 
ATOM      9  C   UNL     1     117.119 100.475 119.484  1.00  0.00     0.039 A 
ATOM     10  C   UNL     1     119.332 100.963 120.324  1.00  0.00     0.039 A 
ATOM     11  C   UNL     1     117.314  99.121 119.757  1.00  0.00     0.009 A 
ATOM     12  C   UNL     1     119.526  99.609 120.598  1.00  0.00     0.009 A 
ATOM     13  F   UNL     1     117.942 102.696 119.505  1.00  0.00    -0.207 F 
ENDBRANCH   2   7
BRANCH   1  14
ATOM     14  C   UNL     1     118.514  96.998 123.152  1.00  0.00     0.254 C 
ATOM     15  O   UNL     1     118.959  96.909 124.296  1.00  0.00    -0.269 OA
BRANCH  14  16
ATOM     16  C   UNL     1     117.063  97.186 123.044  1.00  0.00     0.042 A 
ATOM     17  C   UNL     1     116.260  96.148 122.568  1.00  0.00     0.044 A 
ATOM     18  C   UNL     1     116.488  98.404 123.407  1.00  0.00     0.018 A 
ATOM     19  C   UNL     1     114.880  96.332 122.469  1.00  0.00     0.084 A 
ATOM     20  C   UNL     1     115.110  98.589 123.295  1.00  0.00     0.049 A 
ATOM     21  N   UNL     1     114.077  95.307 121.958  1.00  0.00    -0.320 N 
ATOM     22  C   UNL     1     114.304  97.548 122.835  1.00  0.00     0.143 A 
ATOM     23  C   UNL     1     112.706  95.417 121.919  1.00  0.00     0.262 C 
ATOM     24  O   UNL     1     112.968  97.800 122.703  1.00  0.00    -0.482 OA
ATOM     25  O   UNL     1     111.965  94.574 121.419  1.00  0.00    -0.271 OA
ATOM     26  C   UNL     1     112.162  96.638 122.640  1.00  0.00     0.329 C 
ATOM     27  H   UNL     1     114.522  94.470 121.594  1.00  0.00     0.170 HD
ENDBRANCH  14  16
ENDBRANCH   1  14
TORSDOF 3
ENDMDL
