MODEL 1
REMARK VINA RESULT:      -8.0      0.000      0.000
REMARK SMILES O=C(/C=C1\CCOc2cc(C(F)(F)F)ccc21)Nc1cccc2c1C[C@H](O)CC2
REMARK SMILES IDX 1 1 2 2 18 3 3 5 4 6 5 7 17 8 6 9 16 10 8 11 7 12 15 13 9 14
REMARK SMILES IDX 10 15 11 16 12 17 13 18 14 19 19 20 20 21 24 22 21 23 23 24
REMARK SMILES IDX 25 25 22 26 29 27 26 28 28 29 27 30
REMARK H PARENT 18 4 27 31
ROOT
ATOM      1  O   UNL     1      96.950 110.110 110.645  1.00  0.00    -0.270 OA
ATOM      2  C   UNL     1      96.344 109.038 110.376  1.00  0.00     0.248 C 
ATOM      3  N   UNL     1      95.663 108.314 111.412  1.00  0.00    -0.322 N 
ATOM      4  H   UNL     1      94.941 107.631 111.143  1.00  0.00     0.170 HD
ENDROOT
BRANCH   2   5
ATOM      5  C   UNL     1      96.247 108.609 108.969  1.00  0.00     0.076 C 
ATOM      6  C   UNL     1      97.112 107.761 108.364  1.00  0.00    -0.028 C 
ATOM      7  C   UNL     1      98.408 107.372 109.064  1.00  0.00     0.078 C 
ATOM      8  C   UNL     1      96.961 107.410 106.911  1.00  0.00     0.020 A 
ATOM      9  C   UNL     1      99.107 106.200 108.376  1.00  0.00     0.234 C 
ATOM     10  C   UNL     1      95.784 107.657 106.171  1.00  0.00     0.013 A 
ATOM     11  C   UNL     1      98.049 106.804 106.250  1.00  0.00     0.127 A 
ATOM     12  O   UNL     1      99.178 106.416 106.972  1.00  0.00    -0.493 OA
ATOM     13  C   UNL     1      95.735 107.391 104.799  1.00  0.00     0.014 A 
ATOM     14  C   UNL     1      98.006 106.565 104.873  1.00  0.00     0.060 A 
ATOM     15  C   UNL     1      96.859 106.882 104.130  1.00  0.00     0.059 A 
BRANCH  15  16
ATOM     16  C   UNL     1      96.791 106.563 102.657  1.00  0.00     0.416 C 
ATOM     17  F   UNL     1      97.224 105.267 102.452  1.00  0.00    -0.166 F 
ATOM     18  F   UNL     1      95.493 106.685 102.191  1.00  0.00    -0.166 F 
ATOM     19  F   UNL     1      97.593 107.427 101.933  1.00  0.00    -0.166 F 
ENDBRANCH  15  16
ENDBRANCH   2   5
BRANCH   3  20
ATOM     20  C   UNL     1      95.947 108.502 112.810  1.00  0.00     0.045 A 
ATOM     21  C   UNL     1      95.610 109.720 113.422  1.00  0.00     0.026 A 
ATOM     22  C   UNL     1      96.582 107.487 113.572  1.00  0.00    -0.019 A 
ATOM     23  C   UNL     1      95.863 109.930 114.775  1.00  0.00     0.002 A 
ATOM     24  C   UNL     1      96.791 107.695 114.962  1.00  0.00    -0.043 A 
ATOM     25  C   UNL     1      96.893 106.142 112.935  1.00  0.00     0.069 C 
ATOM     26  C   UNL     1      96.448 108.927 115.540  1.00  0.00     0.004 A 
ATOM     27  C   UNL     1      97.455 106.657 115.836  1.00  0.00     0.038 C 
ATOM     28  C   UNL     1      97.810 105.254 113.794  1.00  0.00     0.119 C 
ATOM     29  C   UNL     1      97.346 105.250 115.253  1.00  0.00     0.037 C 
BRANCH  28  30
ATOM     30  O   UNL     1      97.860 103.947 113.280  1.00  0.00    -0.393 OA
ATOM     31  H   UNL     1      98.771 103.579 113.402  1.00  0.00     0.210 HD
ENDBRANCH  28  30
ENDBRANCH   3  20
TORSDOF 4
ENDMDL
MODEL 2
REMARK VINA RESULT:      -6.7     12.060     14.198
REMARK SMILES O=C(/C=C1\CCOc2cc(C(F)(F)F)ccc21)Nc1cccc2c1C[C@H](O)CC2
REMARK SMILES IDX 1 1 2 2 18 3 3 5 4 6 5 7 17 8 6 9 16 10 8 11 7 12 15 13 9 14
REMARK SMILES IDX 10 15 11 16 12 17 13 18 14 19 19 20 20 21 24 22 21 23 23 24
REMARK SMILES IDX 25 25 22 26 29 27 26 28 28 29 27 30
REMARK H PARENT 18 4 27 31
ROOT
ATOM      1  O   UNL     1     102.111  92.809 112.326  1.00  0.00    -0.270 OA
ATOM      2  C   UNL     1     102.152  93.975 111.849  1.00  0.00     0.248 C 
ATOM      3  N   UNL     1     103.124  94.917 112.327  1.00  0.00    -0.322 N 
ATOM      4  H   UNL     1     103.346  95.735 111.742  1.00  0.00     0.170 HD
ENDROOT
BRANCH   2   5
ATOM      5  C   UNL     1     101.270  94.312 110.717  1.00  0.00     0.076 C 
ATOM      6  C   UNL     1     100.126  95.029 110.823  1.00  0.00    -0.028 C 
ATOM      7  C   UNL     1      99.550  95.342 112.198  1.00  0.00     0.078 C 
ATOM      8  C   UNL     1      99.264  95.291 109.620  1.00  0.00     0.020 A 
ATOM      9  C   UNL     1      98.441  96.391 112.135  1.00  0.00     0.234 C 
ATOM     10  C   UNL     1      99.707  95.106 108.293  1.00  0.00     0.013 A 
ATOM     11  C   UNL     1      97.945  95.744 109.826  1.00  0.00     0.127 A 
ATOM     12  O   UNL     1      97.510  96.072 111.109  1.00  0.00    -0.493 OA
ATOM     13  C   UNL     1      98.830  95.279 107.218  1.00  0.00     0.014 A 
ATOM     14  C   UNL     1      97.063  95.888 108.750  1.00  0.00     0.060 A 
ATOM     15  C   UNL     1      97.490  95.631 107.438  1.00  0.00     0.059 A 
BRANCH  15  16
ATOM     16  C   UNL     1      96.557  95.851 106.275  1.00  0.00     0.416 C 
ATOM     17  F   UNL     1      96.129  97.166 106.277  1.00  0.00    -0.166 F 
ATOM     18  F   UNL     1      97.199  95.587 105.077  1.00  0.00    -0.166 F 
ATOM     19  F   UNL     1      95.455  95.019 106.367  1.00  0.00    -0.166 F 
ENDBRANCH  15  16
ENDBRANCH   2   5
BRANCH   3  20
ATOM     20  C   UNL     1     103.802  94.766 113.587  1.00  0.00     0.045 A 
ATOM     21  C   UNL     1     103.096  94.995 114.779  1.00  0.00     0.026 A 
ATOM     22  C   UNL     1     105.176  94.415 113.643  1.00  0.00    -0.019 A 
ATOM     23  C   UNL     1     103.720  94.849 116.015  1.00  0.00     0.002 A 
ATOM     24  C   UNL     1     105.788  94.222 114.911  1.00  0.00    -0.043 A 
ATOM     25  C   UNL     1     105.932  94.103 112.361  1.00  0.00     0.069 C 
ATOM     26  C   UNL     1     105.056  94.465 116.082  1.00  0.00     0.004 A 
ATOM     27  C   UNL     1     107.244  93.841 115.046  1.00  0.00     0.038 C 
ATOM     28  C   UNL     1     107.455  94.003 112.557  1.00  0.00     0.119 C 
ATOM     29  C   UNL     1     107.787  93.160 113.791  1.00  0.00     0.037 C 
BRANCH  28  30
ATOM     30  O   UNL     1     108.070  93.474 111.409  1.00  0.00    -0.393 OA
ATOM     31  H   UNL     1     107.431  92.883 110.935  1.00  0.00     0.210 HD
ENDBRANCH  28  30
ENDBRANCH   3  20
TORSDOF 4
ENDMDL
MODEL 3
REMARK VINA RESULT:      -6.5     13.086     16.011
REMARK SMILES O=C(/C=C1\CCOc2cc(C(F)(F)F)ccc21)Nc1cccc2c1C[C@H](O)CC2
REMARK SMILES IDX 1 1 2 2 18 3 3 5 4 6 5 7 17 8 6 9 16 10 8 11 7 12 15 13 9 14
REMARK SMILES IDX 10 15 11 16 12 17 13 18 14 19 19 20 20 21 24 22 21 23 23 24
REMARK SMILES IDX 25 25 22 26 29 27 26 28 28 29 27 30
REMARK H PARENT 18 4 27 31
ROOT
ATOM      1  O   UNL     1      98.833  94.110 110.840  1.00  0.00    -0.270 OA
ATOM      2  C   UNL     1      99.930  94.424 110.305  1.00  0.00     0.248 C 
ATOM      3  N   UNL     1      99.948  95.196 109.095  1.00  0.00    -0.322 N 
ATOM      4  H   UNL     1     100.814  95.693 108.841  1.00  0.00     0.170 HD
ENDROOT
BRANCH   2   5
ATOM      5  C   UNL     1     101.184  94.092 111.006  1.00  0.00     0.076 C 
ATOM      6  C   UNL     1     101.867  94.947 111.802  1.00  0.00    -0.028 C 
ATOM      7  C   UNL     1     101.488  96.422 111.835  1.00  0.00     0.078 C 
ATOM      8  C   UNL     1     103.162  94.537 112.446  1.00  0.00     0.020 A 
ATOM      9  C   UNL     1     102.159  97.166 112.988  1.00  0.00     0.234 C 
ATOM     10  C   UNL     1     103.591  93.195 112.539  1.00  0.00     0.013 A 
ATOM     11  C   UNL     1     103.992  95.541 112.983  1.00  0.00     0.127 A 
ATOM     12  O   UNL     1     103.548  96.862 113.038  1.00  0.00    -0.493 OA
ATOM     13  C   UNL     1     104.848  92.884 113.067  1.00  0.00     0.014 A 
ATOM     14  C   UNL     1     105.260  95.228 113.485  1.00  0.00     0.060 A 
ATOM     15  C   UNL     1     105.710  93.900 113.507  1.00  0.00     0.059 A 
BRANCH  15  16
ATOM     16  C   UNL     1     107.050  93.557 114.109  1.00  0.00     0.416 C 
ATOM     17  F   UNL     1     107.092  92.204 114.384  1.00  0.00    -0.166 F 
ATOM     18  F   UNL     1     108.074  93.872 113.231  1.00  0.00    -0.166 F 
ATOM     19  F   UNL     1     107.253  94.263 115.281  1.00  0.00    -0.166 F 
ENDBRANCH  15  16
ENDBRANCH   2   5
BRANCH   3  20
ATOM     20  C   UNL     1      98.810  95.305 108.223  1.00  0.00     0.045 A 
ATOM     21  C   UNL     1      97.615  95.853 108.718  1.00  0.00     0.026 A 
ATOM     22  C   UNL     1      98.867  94.847 106.881  1.00  0.00    -0.019 A 
ATOM     23  C   UNL     1      96.498  95.981 107.897  1.00  0.00     0.002 A 
ATOM     24  C   UNL     1      97.736  95.028 106.040  1.00  0.00    -0.043 A 
ATOM     25  C   UNL     1     100.174  94.312 106.318  1.00  0.00     0.069 C 
ATOM     26  C   UNL     1      96.556  95.572 106.568  1.00  0.00     0.004 A 
ATOM     27  C   UNL     1      97.729  94.571 104.600  1.00  0.00     0.038 C 
ATOM     28  C   UNL     1     100.015  93.616 104.955  1.00  0.00     0.119 C 
ATOM     29  C   UNL     1      99.137  94.452 104.020  1.00  0.00     0.037 C 
BRANCH  28  30
ATOM     30  O   UNL     1     101.270  93.367 104.374  1.00  0.00    -0.393 OA
ATOM     31  H   UNL     1     101.985  93.627 105.010  1.00  0.00     0.210 HD
ENDBRANCH  28  30
ENDBRANCH   3  20
TORSDOF 4
ENDMDL
MODEL 4
REMARK VINA RESULT:      -6.4     11.959     14.148
REMARK SMILES O=C(/C=C1\CCOc2cc(C(F)(F)F)ccc21)Nc1cccc2c1C[C@H](O)CC2
REMARK SMILES IDX 1 1 2 2 18 3 3 5 4 6 5 7 17 8 6 9 16 10 8 11 7 12 15 13 9 14
REMARK SMILES IDX 10 15 11 16 12 17 13 18 14 19 19 20 20 21 24 22 21 23 23 24
REMARK SMILES IDX 25 25 22 26 29 27 26 28 28 29 27 30
REMARK H PARENT 18 4 27 31
ROOT
ATOM      1  O   UNL     1     102.689  96.859 113.031  1.00  0.00    -0.270 OA
ATOM      2  C   UNL     1     102.318  95.717 112.645  1.00  0.00     0.248 C 
ATOM      3  N   UNL     1     102.673  94.550 113.401  1.00  0.00    -0.322 N 
ATOM      4  H   UNL     1     102.130  93.686 113.257  1.00  0.00     0.170 HD
ENDROOT
BRANCH   2   5
ATOM      5  C   UNL     1     101.419  95.617 111.482  1.00  0.00     0.076 C 
ATOM      6  C   UNL     1     100.094  95.892 111.510  1.00  0.00    -0.028 C 
ATOM      7  C   UNL     1      99.391  96.106 112.845  1.00  0.00     0.078 C 
ATOM      8  C   UNL     1      99.242  95.723 110.283  1.00  0.00     0.020 A 
ATOM      9  C   UNL     1      97.989  96.687 112.673  1.00  0.00     0.234 C 
ATOM     10  C   UNL     1      99.774  95.586 108.983  1.00  0.00     0.013 A 
ATOM     11  C   UNL     1      97.841  95.699 110.437  1.00  0.00     0.127 A 
ATOM     12  O   UNL     1      97.269  95.969 111.680  1.00  0.00    -0.493 OA
ATOM     13  C   UNL     1      98.935  95.340 107.892  1.00  0.00     0.014 A 
ATOM     14  C   UNL     1      97.008  95.425 109.348  1.00  0.00     0.060 A 
ATOM     15  C   UNL     1      97.549  95.216 108.070  1.00  0.00     0.059 A 
BRANCH  15  16
ATOM     16  C   UNL     1      96.643  94.986 106.886  1.00  0.00     0.416 C 
ATOM     17  F   UNL     1      97.312  95.334 105.728  1.00  0.00    -0.166 F 
ATOM     18  F   UNL     1      96.268  93.655 106.809  1.00  0.00    -0.166 F 
ATOM     19  F   UNL     1      95.496  95.753 106.993  1.00  0.00    -0.166 F 
ENDBRANCH  15  16
ENDBRANCH   2   5
BRANCH   3  20
ATOM     20  C   UNL     1     103.754  94.534 114.350  1.00  0.00     0.045 A 
ATOM     21  C   UNL     1     103.491  94.836 115.696  1.00  0.00     0.026 A 
ATOM     22  C   UNL     1     105.082  94.243 113.944  1.00  0.00    -0.019 A 
ATOM     23  C   UNL     1     104.513  94.821 116.641  1.00  0.00     0.002 A 
ATOM     24  C   UNL     1     106.108  94.183 114.926  1.00  0.00    -0.043 A 
ATOM     25  C   UNL     1     105.366  93.852 112.502  1.00  0.00     0.069 C 
ATOM     26  C   UNL     1     105.812  94.497 116.261  1.00  0.00     0.004 A 
ATOM     27  C   UNL     1     107.542  93.872 114.567  1.00  0.00     0.038 C 
ATOM     28  C   UNL     1     106.865  93.828 112.158  1.00  0.00     0.119 C 
ATOM     29  C   UNL     1     107.660  93.107 113.250  1.00  0.00     0.037 C 
BRANCH  28  30
ATOM     30  O   UNL     1     107.078  93.228 110.905  1.00  0.00    -0.393 OA
ATOM     31  H   UNL     1     107.853  92.614 110.961  1.00  0.00     0.210 HD
ENDBRANCH  28  30
ENDBRANCH   3  20
TORSDOF 4
ENDMDL
MODEL 5
REMARK VINA RESULT:      -6.3     13.533     15.646
REMARK SMILES O=C(/C=C1\CCOc2cc(C(F)(F)F)ccc21)Nc1cccc2c1C[C@H](O)CC2
REMARK SMILES IDX 1 1 2 2 18 3 3 5 4 6 5 7 17 8 6 9 16 10 8 11 7 12 15 13 9 14
REMARK SMILES IDX 10 15 11 16 12 17 13 18 14 19 19 20 20 21 24 22 21 23 23 24
REMARK SMILES IDX 25 25 22 26 29 27 26 28 28 29 27 30
REMARK H PARENT 18 4 27 31
ROOT
ATOM      1  O   UNL     1     101.332  92.831 113.947  1.00  0.00    -0.270 OA
ATOM      2  C   UNL     1     101.899  92.525 112.864  1.00  0.00     0.248 C 
ATOM      3  N   UNL     1     103.259  92.065 112.866  1.00  0.00    -0.322 N 
ATOM      4  H   UNL     1     103.604  91.545 112.046  1.00  0.00     0.170 HD
ENDROOT
BRANCH   2   5
ATOM      5  C   UNL     1     101.108  92.534 111.620  1.00  0.00     0.076 C 
ATOM      6  C   UNL     1     100.707  93.654 110.974  1.00  0.00    -0.028 C 
ATOM      7  C   UNL     1     100.860  95.014 111.645  1.00  0.00     0.078 C 
ATOM      8  C   UNL     1      99.866  93.571 109.731  1.00  0.00     0.020 A 
ATOM      9  C   UNL     1     100.634  96.168 110.669  1.00  0.00     0.234 C 
ATOM     10  C   UNL     1      99.703  92.385 108.983  1.00  0.00     0.013 A 
ATOM     11  C   UNL     1      99.206  94.734 109.288  1.00  0.00     0.127 A 
ATOM     12  O   UNL     1      99.447  95.957 109.914  1.00  0.00    -0.493 OA
ATOM     13  C   UNL     1      98.836  92.347 107.887  1.00  0.00     0.014 A 
ATOM     14  C   UNL     1      98.317  94.685 108.209  1.00  0.00     0.060 A 
ATOM     15  C   UNL     1      98.103  93.485 107.516  1.00  0.00     0.059 A 
BRANCH  15  16
ATOM     16  C   UNL     1      97.196  93.450 106.312  1.00  0.00     0.416 C 
ATOM     17  F   UNL     1      97.720  92.583 105.372  1.00  0.00    -0.166 F 
ATOM     18  F   UNL     1      95.929  93.018 106.668  1.00  0.00    -0.166 F 
ATOM     19  F   UNL     1      97.081  94.709 105.750  1.00  0.00    -0.166 F 
ENDBRANCH  15  16
ENDBRANCH   2   5
BRANCH   3  20
ATOM     20  C   UNL     1     104.159  92.299 113.962  1.00  0.00     0.045 A 
ATOM     21  C   UNL     1     103.730  92.035 115.273  1.00  0.00     0.026 A 
ATOM     22  C   UNL     1     105.464  92.815 113.743  1.00  0.00    -0.019 A 
ATOM     23  C   UNL     1     104.581  92.242 116.356  1.00  0.00     0.002 A 
ATOM     24  C   UNL     1     106.338  92.977 114.851  1.00  0.00    -0.043 A 
ATOM     25  C   UNL     1     105.960  93.044 112.325  1.00  0.00     0.069 C 
ATOM     26  C   UNL     1     105.875  92.709 116.148  1.00  0.00     0.004 A 
ATOM     27  C   UNL     1     107.741  93.514 114.692  1.00  0.00     0.038 C 
ATOM     28  C   UNL     1     107.271  93.846 112.256  1.00  0.00     0.119 C 
ATOM     29  C   UNL     1     108.282  93.317 113.277  1.00  0.00     0.037 C 
BRANCH  28  30
ATOM     30  O   UNL     1     107.807  93.813 110.957  1.00  0.00    -0.393 OA
ATOM     31  H   UNL     1     107.409  93.056 110.456  1.00  0.00     0.210 HD
ENDBRANCH  28  30
ENDBRANCH   3  20
TORSDOF 4
ENDMDL
MODEL 6
REMARK VINA RESULT:      -6.2     11.373     14.863
REMARK SMILES O=C(/C=C1\CCOc2cc(C(F)(F)F)ccc21)Nc1cccc2c1C[C@H](O)CC2
REMARK SMILES IDX 1 1 2 2 18 3 3 5 4 6 5 7 17 8 6 9 16 10 8 11 7 12 15 13 9 14
REMARK SMILES IDX 10 15 11 16 12 17 13 18 14 19 19 20 20 21 24 22 21 23 23 24
REMARK SMILES IDX 25 25 22 26 29 27 26 28 28 29 27 30
REMARK H PARENT 18 4 27 31
ROOT
ATOM      1  O   UNL     1     102.082  94.427 115.068  1.00  0.00    -0.270 OA
ATOM      2  C   UNL     1     102.366  95.656 115.061  1.00  0.00     0.248 C 
ATOM      3  N   UNL     1     103.720  96.081 114.845  1.00  0.00    -0.322 N 
ATOM      4  H   UNL     1     103.889  97.053 114.545  1.00  0.00     0.170 HD
ENDROOT
BRANCH   2   5
ATOM      5  C   UNL     1     101.273  96.639 115.158  1.00  0.00     0.076 C 
ATOM      6  C   UNL     1     101.378  97.845 115.766  1.00  0.00    -0.028 C 
ATOM      7  C   UNL     1     102.603  98.164 116.613  1.00  0.00     0.078 C 
ATOM      8  C   UNL     1     100.197  98.771 115.855  1.00  0.00     0.020 A 
ATOM      9  C   UNL     1     102.687  99.647 116.972  1.00  0.00     0.234 C 
ATOM     10  C   UNL     1      99.032  98.620 115.072  1.00  0.00     0.013 A 
ATOM     11  C   UNL     1     100.254  99.845 116.765  1.00  0.00     0.127 A 
ATOM     12  O   UNL     1     101.435 100.115 117.457  1.00  0.00    -0.493 OA
ATOM     13  C   UNL     1      97.931  99.459 115.263  1.00  0.00     0.014 A 
ATOM     14  C   UNL     1      99.140 100.665 116.974  1.00  0.00     0.060 A 
ATOM     15  C   UNL     1      97.959 100.462 116.244  1.00  0.00     0.059 A 
BRANCH  15  16
ATOM     16  C   UNL     1      96.783 101.388 116.424  1.00  0.00     0.416 C 
ATOM     17  F   UNL     1      95.660 100.644 116.729  1.00  0.00    -0.166 F 
ATOM     18  F   UNL     1      97.021 102.288 117.450  1.00  0.00    -0.166 F 
ATOM     19  F   UNL     1      96.546 102.108 115.266  1.00  0.00    -0.166 F 
ENDBRANCH  15  16
ENDBRANCH   2   5
BRANCH   3  20
ATOM     20  C   UNL     1     104.850  95.211 115.029  1.00  0.00     0.045 A 
ATOM     21  C   UNL     1     105.082  94.643 116.292  1.00  0.00     0.026 A 
ATOM     22  C   UNL     1     105.745  94.936 113.962  1.00  0.00    -0.019 A 
ATOM     23  C   UNL     1     106.162  93.789 116.501  1.00  0.00     0.002 A 
ATOM     24  C   UNL     1     106.815  94.025 114.175  1.00  0.00    -0.043 A 
ATOM     25  C   UNL     1     105.467  95.494 112.575  1.00  0.00     0.069 C 
ATOM     26  C   UNL     1     107.022  93.481 115.451  1.00  0.00     0.004 A 
ATOM     27  C   UNL     1     107.802  93.681 113.084  1.00  0.00     0.038 C 
ATOM     28  C   UNL     1     106.648  95.336 111.603  1.00  0.00     0.119 C 
ATOM     29  C   UNL     1     107.233  93.924 111.687  1.00  0.00     0.037 C 
BRANCH  28  30
ATOM     30  O   UNL     1     106.253  95.637 110.288  1.00  0.00    -0.393 OA
ATOM     31  H   UNL     1     105.889  96.558 110.255  1.00  0.00     0.210 HD
ENDBRANCH  28  30
ENDBRANCH   3  20
TORSDOF 4
ENDMDL
MODEL 7
REMARK VINA RESULT:      -6.1     13.492     17.087
REMARK SMILES O=C(/C=C1\CCOc2cc(C(F)(F)F)ccc21)Nc1cccc2c1C[C@H](O)CC2
REMARK SMILES IDX 1 1 2 2 18 3 3 5 4 6 5 7 17 8 6 9 16 10 8 11 7 12 15 13 9 14
REMARK SMILES IDX 10 15 11 16 12 17 13 18 14 19 19 20 20 21 24 22 21 23 23 24
REMARK SMILES IDX 25 25 22 26 29 27 26 28 28 29 27 30
REMARK H PARENT 18 4 27 31
ROOT
ATOM      1  O   UNL     1     102.573  93.424 104.352  1.00  0.00    -0.270 OA
ATOM      2  C   UNL     1     101.448  92.963 104.687  1.00  0.00     0.248 C 
ATOM      3  N   UNL     1     100.584  92.380 103.700  1.00  0.00    -0.322 N 
ATOM      4  H   UNL     1      99.830  91.753 104.015  1.00  0.00     0.170 HD
ENDROOT
BRANCH   2   5
ATOM      5  C   UNL     1     101.093  92.924 106.117  1.00  0.00     0.076 C 
ATOM      6  C   UNL     1     100.140  93.695 106.692  1.00  0.00    -0.028 C 
ATOM      7  C   UNL     1      99.521  94.847 105.909  1.00  0.00     0.078 C 
ATOM      8  C   UNL     1      99.871  93.619 108.169  1.00  0.00     0.020 A 
ATOM      9  C   UNL     1      98.278  95.410 106.597  1.00  0.00     0.234 C 
ATOM     10  C   UNL     1     100.331  92.566 108.988  1.00  0.00     0.013 A 
ATOM     11  C   UNL     1      99.122  94.652 108.768  1.00  0.00     0.127 A 
ATOM     12  O   UNL     1      98.531  95.638 107.977  1.00  0.00    -0.493 OA
ATOM     13  C   UNL     1     100.127  92.597 110.371  1.00  0.00     0.014 A 
ATOM     14  C   UNL     1      98.944  94.694 110.154  1.00  0.00     0.060 A 
ATOM     15  C   UNL     1      99.468  93.681 110.972  1.00  0.00     0.059 A 
BRANCH  15  16
ATOM     16  C   UNL     1      99.219  93.694 112.459  1.00  0.00     0.416 C 
ATOM     17  F   UNL     1      97.917  94.092 112.698  1.00  0.00    -0.166 F 
ATOM     18  F   UNL     1      99.412  92.433 112.997  1.00  0.00    -0.166 F 
ATOM     19  F   UNL     1     100.082  94.572 113.091  1.00  0.00    -0.166 F 
ENDBRANCH  15  16
ENDBRANCH   2   5
BRANCH   3  20
ATOM     20  C   UNL     1     100.726  92.635 102.292  1.00  0.00     0.045 A 
ATOM     21  C   UNL     1     101.690  91.925 101.558  1.00  0.00     0.026 A 
ATOM     22  C   UNL     1      99.925  93.608 101.638  1.00  0.00    -0.019 A 
ATOM     23  C   UNL     1     101.847  92.142 100.192  1.00  0.00     0.002 A 
ATOM     24  C   UNL     1     100.061  93.785 100.235  1.00  0.00    -0.043 A 
ATOM     25  C   UNL     1      98.835  94.336 102.409  1.00  0.00     0.069 C 
ATOM     26  C   UNL     1     101.039  93.064  99.534  1.00  0.00     0.004 A 
ATOM     27  C   UNL     1      99.237  94.797  99.473  1.00  0.00     0.038 C 
ATOM     28  C   UNL     1      98.240  95.532 101.648  1.00  0.00     0.119 C 
ATOM     29  C   UNL     1      97.939  95.153 100.195  1.00  0.00     0.037 C 
BRANCH  28  30
ATOM     30  O   UNL     1      97.085  96.006 102.291  1.00  0.00    -0.393 OA
ATOM     31  H   UNL     1      97.229  96.943 102.581  1.00  0.00     0.210 HD
ENDBRANCH  28  30
ENDBRANCH   3  20
TORSDOF 4
ENDMDL
MODEL 8
REMARK VINA RESULT:      -6.1     11.299     14.559
REMARK SMILES O=C(/C=C1\CCOc2cc(C(F)(F)F)ccc21)Nc1cccc2c1C[C@H](O)CC2
REMARK SMILES IDX 1 1 2 2 18 3 3 5 4 6 5 7 17 8 6 9 16 10 8 11 7 12 15 13 9 14
REMARK SMILES IDX 10 15 11 16 12 17 13 18 14 19 19 20 20 21 24 22 21 23 23 24
REMARK SMILES IDX 25 25 22 26 29 27 26 28 28 29 27 30
REMARK H PARENT 18 4 27 31
ROOT
ATOM      1  O   UNL     1     102.198  94.746 115.029  1.00  0.00    -0.270 OA
ATOM      2  C   UNL     1     102.531  95.960 115.099  1.00  0.00     0.248 C 
ATOM      3  N   UNL     1     103.905  96.342 114.934  1.00  0.00    -0.322 N 
ATOM      4  H   UNL     1     104.119  97.321 114.694  1.00  0.00     0.170 HD
ENDROOT
BRANCH   2   5
ATOM      5  C   UNL     1     101.476  96.981 115.230  1.00  0.00     0.076 C 
ATOM      6  C   UNL     1     100.203  96.828 114.795  1.00  0.00    -0.028 C 
ATOM      7  C   UNL     1      99.840  95.642 113.910  1.00  0.00     0.078 C 
ATOM      8  C   UNL     1      99.200  97.939 114.933  1.00  0.00     0.020 A 
ATOM      9  C   UNL     1      98.328  95.473 113.763  1.00  0.00     0.234 C 
ATOM     10  C   UNL     1      99.391  99.057 115.774  1.00  0.00     0.013 A 
ATOM     11  C   UNL     1      98.008  97.864 114.184  1.00  0.00     0.127 A 
ATOM     12  O   UNL     1      97.715  96.716 113.449  1.00  0.00    -0.493 OA
ATOM     13  C   UNL     1      98.464 100.103 115.791  1.00  0.00     0.014 A 
ATOM     14  C   UNL     1      97.097  98.925 114.183  1.00  0.00     0.060 A 
ATOM     15  C   UNL     1      97.330 100.067 114.965  1.00  0.00     0.059 A 
BRANCH  15  16
ATOM     16  C   UNL     1      96.314 101.180 115.013  1.00  0.00     0.416 C 
ATOM     17  F   UNL     1      96.970 102.396 114.983  1.00  0.00    -0.166 F 
ATOM     18  F   UNL     1      95.455 101.103 113.929  1.00  0.00    -0.166 F 
ATOM     19  F   UNL     1      95.559 101.103 116.169  1.00  0.00    -0.166 F 
ENDBRANCH  15  16
ENDBRANCH   2   5
BRANCH   3  20
ATOM     20  C   UNL     1     104.995  95.416 115.090  1.00  0.00     0.045 A 
ATOM     21  C   UNL     1     105.252  94.864 116.356  1.00  0.00     0.026 A 
ATOM     22  C   UNL     1     105.827  95.072 113.993  1.00  0.00    -0.019 A 
ATOM     23  C   UNL     1     106.294  93.959 116.538  1.00  0.00     0.002 A 
ATOM     24  C   UNL     1     106.856  94.111 114.182  1.00  0.00    -0.043 A 
ATOM     25  C   UNL     1     105.518  95.615 112.607  1.00  0.00     0.069 C 
ATOM     26  C   UNL     1     107.091  93.584 115.460  1.00  0.00     0.004 A 
ATOM     27  C   UNL     1     107.776  93.692 113.058  1.00  0.00     0.038 C 
ATOM     28  C   UNL     1     106.646  95.375 111.589  1.00  0.00     0.119 C 
ATOM     29  C   UNL     1     107.161  93.936 111.681  1.00  0.00     0.037 C 
BRANCH  28  30
ATOM     30  O   UNL     1     106.210  95.668 110.286  1.00  0.00    -0.393 OA
ATOM     31  H   UNL     1     105.255  95.421 110.194  1.00  0.00     0.210 HD
ENDBRANCH  28  30
ENDBRANCH   3  20
TORSDOF 4
ENDMDL
MODEL 9
REMARK VINA RESULT:      -6.1     11.766     14.221
REMARK SMILES O=C(/C=C1\CCOc2cc(C(F)(F)F)ccc21)Nc1cccc2c1C[C@H](O)CC2
REMARK SMILES IDX 1 1 2 2 18 3 3 5 4 6 5 7 17 8 6 9 16 10 8 11 7 12 15 13 9 14
REMARK SMILES IDX 10 15 11 16 12 17 13 18 14 19 19 20 20 21 24 22 21 23 23 24
REMARK SMILES IDX 25 25 22 26 29 27 26 28 28 29 27 30
REMARK H PARENT 18 4 27 31
ROOT
ATOM      1  O   UNL     1     102.787  92.594 112.864  1.00  0.00    -0.270 OA
ATOM      2  C   UNL     1     102.907  93.694 112.259  1.00  0.00     0.248 C 
ATOM      3  N   UNL     1     104.139  94.427 112.331  1.00  0.00    -0.322 N 
ATOM      4  H   UNL     1     104.330  95.141 111.614  1.00  0.00     0.170 HD
ENDROOT
BRANCH   2   5
ATOM      5  C   UNL     1     101.810  94.148 111.385  1.00  0.00     0.076 C 
ATOM      6  C   UNL     1     100.815  94.980 111.773  1.00  0.00    -0.028 C 
ATOM      7  C   UNL     1     100.641  95.320 113.248  1.00  0.00     0.078 C 
ATOM      8  C   UNL     1      99.711  95.359 110.826  1.00  0.00     0.020 A 
ATOM      9  C   UNL     1      99.673  96.483 113.462  1.00  0.00     0.234 C 
ATOM     10  C   UNL     1      99.783  95.159 109.431  1.00  0.00     0.013 A 
ATOM     11  C   UNL     1      98.544  95.945 111.356  1.00  0.00     0.127 A 
ATOM     12  O   UNL     1      98.484  96.288 112.707  1.00  0.00    -0.493 OA
ATOM     13  C   UNL     1      98.688  95.449 108.611  1.00  0.00     0.014 A 
ATOM     14  C   UNL     1      97.441  96.207 110.538  1.00  0.00     0.060 A 
ATOM     15  C   UNL     1      97.493  95.936 109.162  1.00  0.00     0.059 A 
BRANCH  15  16
ATOM     16  C   UNL     1      96.326  96.281 108.271  1.00  0.00     0.416 C 
ATOM     17  F   UNL     1      95.455  95.209 108.227  1.00  0.00    -0.166 F 
ATOM     18  F   UNL     1      95.653  97.391 108.756  1.00  0.00    -0.166 F 
ATOM     19  F   UNL     1      96.758  96.564 106.988  1.00  0.00    -0.166 F 
ENDBRANCH  15  16
ENDBRANCH   2   5
BRANCH   3  20
ATOM     20  C   UNL     1     105.118  94.206 113.362  1.00  0.00     0.045 A 
ATOM     21  C   UNL     1     106.196  93.341 113.111  1.00  0.00     0.026 A 
ATOM     22  C   UNL     1     104.999  94.827 114.632  1.00  0.00    -0.019 A 
ATOM     23  C   UNL     1     107.166  93.113 114.084  1.00  0.00     0.002 A 
ATOM     24  C   UNL     1     106.020  94.625 115.599  1.00  0.00    -0.043 A 
ATOM     25  C   UNL     1     103.871  95.814 114.891  1.00  0.00     0.069 C 
ATOM     26  C   UNL     1     107.080  93.749 115.319  1.00  0.00     0.004 A 
ATOM     27  C   UNL     1     105.963  95.259 116.969  1.00  0.00     0.038 C 
ATOM     28  C   UNL     1     103.718  96.194 116.373  1.00  0.00     0.119 C 
ATOM     29  C   UNL     1     105.082  96.507 116.995  1.00  0.00     0.037 C 
BRANCH  28  30
ATOM     30  O   UNL     1     102.840  97.282 116.519  1.00  0.00    -0.393 OA
ATOM     31  H   UNL     1     103.030  97.955 115.818  1.00  0.00     0.210 HD
ENDBRANCH  28  30
ENDBRANCH   3  20
TORSDOF 4
ENDMDL
MODEL 10
REMARK VINA RESULT:      -6.1     12.839     16.047
REMARK SMILES O=C(/C=C1\CCOc2cc(C(F)(F)F)ccc21)Nc1cccc2c1C[C@H](O)CC2
REMARK SMILES IDX 1 1 2 2 18 3 3 5 4 6 5 7 17 8 6 9 16 10 8 11 7 12 15 13 9 14
REMARK SMILES IDX 10 15 11 16 12 17 13 18 14 19 19 20 20 21 24 22 21 23 23 24
REMARK SMILES IDX 25 25 22 26 29 27 26 28 28 29 27 30
REMARK H PARENT 18 4 27 31
ROOT
ATOM      1  O   UNL     1      98.944  93.440 109.249  1.00  0.00    -0.270 OA
ATOM      2  C   UNL     1      99.910  94.226 109.055  1.00  0.00     0.248 C 
ATOM      3  N   UNL     1      99.887  95.137 107.946  1.00  0.00    -0.322 N 
ATOM      4  H   UNL     1     100.511  95.956 107.969  1.00  0.00     0.170 HD
ENDROOT
BRANCH   2   5
ATOM      5  C   UNL     1     100.997  94.276 110.048  1.00  0.00     0.076 C 
ATOM      6  C   UNL     1     100.943  94.968 111.211  1.00  0.00    -0.028 C 
ATOM      7  C   UNL     1      99.806  95.953 111.456  1.00  0.00     0.078 C 
ATOM      8  C   UNL     1     102.116  94.997 112.149  1.00  0.00     0.020 A 
ATOM      9  C   UNL     1      99.744  96.413 112.911  1.00  0.00     0.234 C 
ATOM     10  C   UNL     1     103.198  94.093 112.068  1.00  0.00     0.013 A 
ATOM     11  C   UNL     1     102.141  95.977 113.162  1.00  0.00     0.127 A 
ATOM     12  O   UNL     1     101.034  96.800 113.368  1.00  0.00    -0.493 OA
ATOM     13  C   UNL     1     104.304  94.227 112.912  1.00  0.00     0.014 A 
ATOM     14  C   UNL     1     103.262  96.125 113.986  1.00  0.00     0.060 A 
ATOM     15  C   UNL     1     104.365  95.269 113.850  1.00  0.00     0.059 A 
BRANCH  15  16
ATOM     16  C   UNL     1     105.544  95.389 114.782  1.00  0.00     0.416 C 
ATOM     17  F   UNL     1     105.580  96.667 115.308  1.00  0.00    -0.166 F 
ATOM     18  F   UNL     1     105.442  94.476 115.818  1.00  0.00    -0.166 F 
ATOM     19  F   UNL     1     106.728  95.146 114.107  1.00  0.00    -0.166 F 
ENDBRANCH  15  16
ENDBRANCH   2   5
BRANCH   3  20
ATOM     20  C   UNL     1      99.031  94.955 106.804  1.00  0.00     0.045 A 
ATOM     21  C   UNL     1      97.712  95.435 106.851  1.00  0.00     0.026 A 
ATOM     22  C   UNL     1      99.490  94.277 105.644  1.00  0.00    -0.019 A 
ATOM     23  C   UNL     1      96.861  95.283 105.760  1.00  0.00     0.002 A 
ATOM     24  C   UNL     1      98.627  94.171 104.520  1.00  0.00    -0.043 A 
ATOM     25  C   UNL     1     100.934  93.810 105.560  1.00  0.00     0.069 C 
ATOM     26  C   UNL     1      97.313  94.656 104.603  1.00  0.00     0.004 A 
ATOM     27  C   UNL     1      99.050  93.470 103.250  1.00  0.00     0.038 C 
ATOM     28  C   UNL     1     101.206  92.871 104.373  1.00  0.00     0.119 C 
ATOM     29  C   UNL     1     100.569  93.418 103.093  1.00  0.00     0.037 C 
BRANCH  28  30
ATOM     30  O   UNL     1     102.587  92.675 104.200  1.00  0.00    -0.393 OA
ATOM     31  H   UNL     1     102.738  91.879 103.629  1.00  0.00     0.210 HD
ENDBRANCH  28  30
ENDBRANCH   3  20
TORSDOF 4
ENDMDL
MODEL 11
REMARK VINA RESULT:      -5.9     13.111     15.922
REMARK SMILES O=C(/C=C1\CCOc2cc(C(F)(F)F)ccc21)Nc1cccc2c1C[C@H](O)CC2
REMARK SMILES IDX 1 1 2 2 18 3 3 5 4 6 5 7 17 8 6 9 16 10 8 11 7 12 15 13 9 14
REMARK SMILES IDX 10 15 11 16 12 17 13 18 14 19 19 20 20 21 24 22 21 23 23 24
REMARK SMILES IDX 25 25 22 26 29 27 26 28 28 29 27 30
REMARK H PARENT 18 4 27 31
ROOT
ATOM      1  O   UNL     1      98.324  95.510 109.722  1.00  0.00    -0.270 OA
ATOM      2  C   UNL     1      99.528  95.698 109.400  1.00  0.00     0.248 C 
ATOM      3  N   UNL     1      99.898  95.797 108.016  1.00  0.00    -0.322 N 
ATOM      4  H   UNL     1     100.796  96.241 107.777  1.00  0.00     0.170 HD
ENDROOT
BRANCH   2   5
ATOM      5  C   UNL     1     100.521  95.934 110.463  1.00  0.00     0.076 C 
ATOM      6  C   UNL     1     101.060  94.963 111.238  1.00  0.00    -0.028 C 
ATOM      7  C   UNL     1     100.478  93.555 111.206  1.00  0.00     0.078 C 
ATOM      8  C   UNL     1     102.037  95.299 112.330  1.00  0.00     0.020 A 
ATOM      9  C   UNL     1     101.381  92.541 111.907  1.00  0.00     0.234 C 
ATOM     10  C   UNL     1     102.695  96.544 112.427  1.00  0.00     0.013 A 
ATOM     11  C   UNL     1     102.312  94.322 113.308  1.00  0.00     0.127 A 
ATOM     12  O   UNL     1     101.795  93.033 113.175  1.00  0.00    -0.493 OA
ATOM     13  C   UNL     1     103.524  96.830 113.516  1.00  0.00     0.014 A 
ATOM     14  C   UNL     1     103.120  94.621 114.410  1.00  0.00     0.060 A 
ATOM     15  C   UNL     1     103.711  95.887 114.538  1.00  0.00     0.059 A 
BRANCH  15  16
ATOM     16  C   UNL     1     104.634  96.185 115.693  1.00  0.00     0.416 C 
ATOM     17  F   UNL     1     105.533  97.164 115.315  1.00  0.00    -0.166 F 
ATOM     18  F   UNL     1     103.915  96.630 116.790  1.00  0.00    -0.166 F 
ATOM     19  F   UNL     1     105.332  95.050 116.065  1.00  0.00    -0.166 F 
ENDBRANCH  15  16
ENDBRANCH   2   5
BRANCH   3  20
ATOM     20  C   UNL     1      99.067  95.304 106.950  1.00  0.00     0.045 A 
ATOM     21  C   UNL     1      97.700  95.625 106.940  1.00  0.00     0.026 A 
ATOM     22  C   UNL     1      99.601  94.481 105.925  1.00  0.00    -0.019 A 
ATOM     23  C   UNL     1      96.871  95.171 105.918  1.00  0.00     0.002 A 
ATOM     24  C   UNL     1      98.755  94.064 104.862  1.00  0.00    -0.043 A 
ATOM     25  C   UNL     1     101.091  94.181 105.893  1.00  0.00     0.069 C 
ATOM     26  C   UNL     1      97.393  94.396 104.886  1.00  0.00     0.004 A 
ATOM     27  C   UNL     1      99.257  93.192 103.735  1.00  0.00     0.038 C 
ATOM     28  C   UNL     1     101.472  93.074 104.894  1.00  0.00     0.119 C 
ATOM     29  C   UNL     1     100.770  93.292 103.551  1.00  0.00     0.037 C 
BRANCH  28  30
ATOM     30  O   UNL     1     102.866  93.014 104.727  1.00  0.00    -0.393 OA
ATOM     31  H   UNL     1     103.242  92.329 105.336  1.00  0.00     0.210 HD
ENDBRANCH  28  30
ENDBRANCH   3  20
TORSDOF 4
ENDMDL
MODEL 12
REMARK VINA RESULT:      -5.9     12.879     16.517
REMARK SMILES O=C(/C=C1\CCOc2cc(C(F)(F)F)ccc21)Nc1cccc2c1C[C@H](O)CC2
REMARK SMILES IDX 1 1 2 2 18 3 3 5 4 6 5 7 17 8 6 9 16 10 8 11 7 12 15 13 9 14
REMARK SMILES IDX 10 15 11 16 12 17 13 18 14 19 19 20 20 21 24 22 21 23 23 24
REMARK SMILES IDX 25 25 22 26 29 27 26 28 28 29 27 30
REMARK H PARENT 18 4 27 31
ROOT
ATOM      1  O   UNL     1      99.453  92.061 106.136  1.00  0.00    -0.270 OA
ATOM      2  C   UNL     1     100.262  92.992 106.398  1.00  0.00     0.248 C 
ATOM      3  N   UNL     1     100.855  93.753 105.335  1.00  0.00    -0.322 N 
ATOM      4  H   UNL     1     101.259  94.675 105.555  1.00  0.00     0.170 HD
ENDROOT
BRANCH   2   5
ATOM      5  C   UNL     1     100.491  93.361 107.806  1.00  0.00     0.076 C 
ATOM      6  C   UNL     1      99.686  94.177 108.526  1.00  0.00    -0.028 C 
ATOM      7  C   UNL     1      98.588  94.970 107.827  1.00  0.00     0.078 C 
ATOM      8  C   UNL     1     100.018  94.534 109.948  1.00  0.00     0.020 A 
ATOM      9  C   UNL     1      97.609  95.597 108.818  1.00  0.00     0.234 C 
ATOM     10  C   UNL     1     100.966  93.831 110.723  1.00  0.00     0.013 A 
ATOM     11  C   UNL     1      99.351  95.625 110.540  1.00  0.00     0.127 A 
ATOM     12  O   UNL     1      98.310  96.260 109.862  1.00  0.00    -0.493 OA
ATOM     13  C   UNL     1     101.299  94.265 112.009  1.00  0.00     0.014 A 
ATOM     14  C   UNL     1      99.706  96.073 111.816  1.00  0.00     0.060 A 
ATOM     15  C   UNL     1     100.703  95.414 112.552  1.00  0.00     0.059 A 
BRANCH  15  16
ATOM     16  C   UNL     1     101.038  95.859 113.953  1.00  0.00     0.416 C 
ATOM     17  F   UNL     1     100.078  95.380 114.824  1.00  0.00    -0.166 F 
ATOM     18  F   UNL     1     102.278  95.376 114.336  1.00  0.00    -0.166 F 
ATOM     19  F   UNL     1     101.070  97.240 114.032  1.00  0.00    -0.166 F 
ENDBRANCH  15  16
ENDBRANCH   2   5
BRANCH   3  20
ATOM     20  C   UNL     1     100.908  93.283 103.976  1.00  0.00     0.045 A 
ATOM     21  C   UNL     1     101.935  92.405 103.592  1.00  0.00     0.026 A 
ATOM     22  C   UNL     1      99.957  93.712 103.014  1.00  0.00    -0.019 A 
ATOM     23  C   UNL     1     102.009  91.925 102.288  1.00  0.00     0.002 A 
ATOM     24  C   UNL     1     100.015  93.177 101.699  1.00  0.00    -0.043 A 
ATOM     25  C   UNL     1      98.806  94.611 103.434  1.00  0.00     0.069 C 
ATOM     26  C   UNL     1     101.058  92.307 101.347  1.00  0.00     0.004 A 
ATOM     27  C   UNL     1      99.032  93.583 100.626  1.00  0.00     0.038 C 
ATOM     28  C   UNL     1      98.023  95.200 102.248  1.00  0.00     0.119 C 
ATOM     29  C   UNL     1      97.725  94.118 101.207  1.00  0.00     0.037 C 
BRANCH  28  30
ATOM     30  O   UNL     1      96.837  95.811 102.689  1.00  0.00    -0.393 OA
ATOM     31  H   UNL     1      96.844  96.768 102.434  1.00  0.00     0.210 HD
ENDBRANCH  28  30
ENDBRANCH   3  20
TORSDOF 4
ENDMDL
MODEL 13
REMARK VINA RESULT:      -5.9     12.697     14.611
REMARK SMILES O=C(/C=C1\CCOc2cc(C(F)(F)F)ccc21)Nc1cccc2c1C[C@H](O)CC2
REMARK SMILES IDX 1 1 2 2 18 3 3 5 4 6 5 7 17 8 6 9 16 10 8 11 7 12 15 13 9 14
REMARK SMILES IDX 10 15 11 16 12 17 13 18 14 19 19 20 20 21 24 22 21 23 23 24
REMARK SMILES IDX 25 25 22 26 29 27 26 28 28 29 27 30
REMARK H PARENT 18 4 27 31
ROOT
ATOM      1  O   UNL     1     102.879  97.114 112.777  1.00  0.00    -0.270 OA
ATOM      2  C   UNL     1     102.303  95.998 112.660  1.00  0.00     0.248 C 
ATOM      3  N   UNL     1     102.416  95.016 113.700  1.00  0.00    -0.322 N 
ATOM      4  H   UNL     1     101.720  94.257 113.738  1.00  0.00     0.170 HD
ENDROOT
BRANCH   2   5
ATOM      5  C   UNL     1     101.421  95.771 111.501  1.00  0.00     0.076 C 
ATOM      6  C   UNL     1     100.961  94.558 111.113  1.00  0.00    -0.028 C 
ATOM      7  C   UNL     1     101.535  93.293 111.739  1.00  0.00     0.078 C 
ATOM      8  C   UNL     1     100.098  94.413 109.892  1.00  0.00     0.020 A 
ATOM      9  C   UNL     1     100.705  92.055 111.403  1.00  0.00     0.234 C 
ATOM     10  C   UNL     1      99.454  95.501 109.262  1.00  0.00     0.013 A 
ATOM     11  C   UNL     1      99.920  93.126 109.345  1.00  0.00     0.127 A 
ATOM     12  O   UNL     1     100.420  92.007 110.010  1.00  0.00    -0.493 OA
ATOM     13  C   UNL     1      98.738  95.316 108.076  1.00  0.00     0.014 A 
ATOM     14  C   UNL     1      99.227  92.950 108.143  1.00  0.00     0.060 A 
ATOM     15  C   UNL     1      98.652  94.047 107.483  1.00  0.00     0.059 A 
BRANCH  15  16
ATOM     16  C   UNL     1      97.850  93.845 106.223  1.00  0.00     0.416 C 
ATOM     17  F   UNL     1      98.393  94.611 105.209  1.00  0.00    -0.166 F 
ATOM     18  F   UNL     1      97.866  92.514 105.842  1.00  0.00    -0.166 F 
ATOM     19  F   UNL     1      96.532  94.223 106.417  1.00  0.00    -0.166 F 
ENDBRANCH  15  16
ENDBRANCH   2   5
BRANCH   3  20
ATOM     20  C   UNL     1     103.457  95.045 114.691  1.00  0.00     0.045 A 
ATOM     21  C   UNL     1     103.207  95.651 115.933  1.00  0.00     0.026 A 
ATOM     22  C   UNL     1     104.739  94.495 114.425  1.00  0.00    -0.019 A 
ATOM     23  C   UNL     1     104.191  95.688 116.917  1.00  0.00     0.002 A 
ATOM     24  C   UNL     1     105.718  94.497 115.454  1.00  0.00    -0.043 A 
ATOM     25  C   UNL     1     104.999  93.782 113.108  1.00  0.00     0.069 C 
ATOM     26  C   UNL     1     105.438  95.116 116.681  1.00  0.00     0.004 A 
ATOM     27  C   UNL     1     107.100  93.923 115.244  1.00  0.00     0.038 C 
ATOM     28  C   UNL     1     106.486  93.479 112.858  1.00  0.00     0.119 C 
ATOM     29  C   UNL     1     107.138  92.895 114.115  1.00  0.00     0.037 C 
BRANCH  28  30
ATOM     30  O   UNL     1     106.641  92.611 111.764  1.00  0.00    -0.393 OA
ATOM     31  H   UNL     1     105.807  92.090 111.636  1.00  0.00     0.210 HD
ENDBRANCH  28  30
ENDBRANCH   3  20
TORSDOF 4
ENDMDL
MODEL 14
REMARK VINA RESULT:      -5.8     10.194     13.836
REMARK SMILES O=C(/C=C1\CCOc2cc(C(F)(F)F)ccc21)Nc1cccc2c1C[C@H](O)CC2
REMARK SMILES IDX 1 1 2 2 18 3 3 5 4 6 5 7 17 8 6 9 16 10 8 11 7 12 15 13 9 14
REMARK SMILES IDX 10 15 11 16 12 17 13 18 14 19 19 20 20 21 24 22 21 23 23 24
REMARK SMILES IDX 25 25 22 26 29 27 26 28 28 29 27 30
REMARK H PARENT 18 4 27 31
ROOT
ATOM      1  O   UNL     1     101.936  95.999 116.207  1.00  0.00    -0.270 OA
ATOM      2  C   UNL     1     101.655  96.828 115.300  1.00  0.00     0.248 C 
ATOM      3  N   UNL     1     101.799  96.462 113.919  1.00  0.00    -0.322 N 
ATOM      4  H   UNL     1     101.296  97.013 113.209  1.00  0.00     0.170 HD
ENDROOT
BRANCH   2   5
ATOM      5  C   UNL     1     101.066  98.124 115.678  1.00  0.00     0.076 C 
ATOM      6  C   UNL     1      99.757  98.443 115.537  1.00  0.00    -0.028 C 
ATOM      7  C   UNL     1      98.836  97.530 114.738  1.00  0.00     0.078 C 
ATOM      8  C   UNL     1      99.249  99.807 115.911  1.00  0.00     0.020 A 
ATOM      9  C   UNL     1      97.362  97.886 114.930  1.00  0.00     0.234 C 
ATOM     10  C   UNL     1      99.981 100.717 116.705  1.00  0.00     0.013 A 
ATOM     11  C   UNL     1      97.977 100.200 115.447  1.00  0.00     0.127 A 
ATOM     12  O   UNL     1      97.163  99.285 114.779  1.00  0.00    -0.493 OA
ATOM     13  C   UNL     1      99.494 102.005 116.944  1.00  0.00     0.014 A 
ATOM     14  C   UNL     1      97.507 101.498 115.665  1.00  0.00     0.060 A 
ATOM     15  C   UNL     1      98.273 102.422 116.392  1.00  0.00     0.059 A 
BRANCH  15  16
ATOM     16  C   UNL     1      97.734 103.800 116.682  1.00  0.00     0.416 C 
ATOM     17  F   UNL     1      96.526 103.687 117.343  1.00  0.00    -0.166 F 
ATOM     18  F   UNL     1      98.618 104.513 117.475  1.00  0.00    -0.166 F 
ATOM     19  F   UNL     1      97.542 104.506 115.507  1.00  0.00    -0.166 F 
ENDBRANCH  15  16
ENDBRANCH   2   5
BRANCH   3  20
ATOM     20  C   UNL     1     102.616  95.360 113.485  1.00  0.00     0.045 A 
ATOM     21  C   UNL     1     102.081  94.062 113.499  1.00  0.00     0.026 A 
ATOM     22  C   UNL     1     103.957  95.561 113.068  1.00  0.00    -0.019 A 
ATOM     23  C   UNL     1     102.842  92.975 113.077  1.00  0.00     0.002 A 
ATOM     24  C   UNL     1     104.707  94.451 112.594  1.00  0.00    -0.043 A 
ATOM     25  C   UNL     1     104.524  96.970 112.989  1.00  0.00     0.069 C 
ATOM     26  C   UNL     1     104.145  93.166 112.628  1.00  0.00     0.004 A 
ATOM     27  C   UNL     1     106.138  94.592 112.128  1.00  0.00     0.038 C 
ATOM     28  C   UNL     1     106.048  97.007 112.782  1.00  0.00     0.119 C 
ATOM     29  C   UNL     1     106.470  96.018 111.692  1.00  0.00     0.037 C 
BRANCH  28  30
ATOM     30  O   UNL     1     106.476  98.308 112.470  1.00  0.00    -0.393 OA
ATOM     31  H   UNL     1     107.195  98.265 111.790  1.00  0.00     0.210 HD
ENDBRANCH  28  30
ENDBRANCH   3  20
TORSDOF 4
ENDMDL
MODEL 15
REMARK VINA RESULT:      -5.7     13.232     16.231
REMARK SMILES O=C(/C=C1\CCOc2cc(C(F)(F)F)ccc21)Nc1cccc2c1C[C@H](O)CC2
REMARK SMILES IDX 1 1 2 2 18 3 3 5 4 6 5 7 17 8 6 9 16 10 8 11 7 12 15 13 9 14
REMARK SMILES IDX 10 15 11 16 12 17 13 18 14 19 19 20 20 21 24 22 21 23 23 24
REMARK SMILES IDX 25 25 22 26 29 27 26 28 28 29 27 30
REMARK H PARENT 18 4 27 31
ROOT
ATOM      1  O   UNL     1      98.532  92.952 110.197  1.00  0.00    -0.270 OA
ATOM      2  C   UNL     1      99.688  93.135 109.729  1.00  0.00     0.248 C 
ATOM      3  N   UNL     1      99.857  93.513 108.354  1.00  0.00    -0.322 N 
ATOM      4  H   UNL     1     100.748  93.945 108.069  1.00  0.00     0.170 HD
ENDROOT
BRANCH   2   5
ATOM      5  C   UNL     1     100.843  93.073 110.641  1.00  0.00     0.076 C 
ATOM      6  C   UNL     1     101.330  94.130 111.334  1.00  0.00    -0.028 C 
ATOM      7  C   UNL     1     100.837  95.537 111.021  1.00  0.00     0.078 C 
ATOM      8  C   UNL     1     102.542  93.986 112.213  1.00  0.00     0.020 A 
ATOM      9  C   UNL     1     101.267  96.549 112.081  1.00  0.00     0.234 C 
ATOM     10  C   UNL     1     103.055  92.738 112.629  1.00  0.00     0.013 A 
ATOM     11  C   UNL     1     103.201  95.155 112.644  1.00  0.00     0.127 A 
ATOM     12  O   UNL     1     102.651  96.408 112.373  1.00  0.00    -0.493 OA
ATOM     13  C   UNL     1     104.238  92.665 113.370  1.00  0.00     0.014 A 
ATOM     14  C   UNL     1     104.398  95.077 113.362  1.00  0.00     0.060 A 
ATOM     15  C   UNL     1     104.942  93.831 113.708  1.00  0.00     0.059 A 
BRANCH  15  16
ATOM     16  C   UNL     1     106.198  93.750 114.538  1.00  0.00     0.416 C 
ATOM     17  F   UNL     1     106.268  92.507 115.138  1.00  0.00    -0.166 F 
ATOM     18  F   UNL     1     107.320  93.934 113.747  1.00  0.00    -0.166 F 
ATOM     19  F   UNL     1     106.198  94.726 115.520  1.00  0.00    -0.166 F 
ENDBRANCH  15  16
ENDBRANCH   2   5
BRANCH   3  20
ATOM     20  C   UNL     1      98.837  93.315 107.360  1.00  0.00     0.045 A 
ATOM     21  C   UNL     1      98.860  92.152 106.574  1.00  0.00     0.026 A 
ATOM     22  C   UNL     1      97.824  94.285 107.145  1.00  0.00    -0.019 A 
ATOM     23  C   UNL     1      97.883  91.925 105.609  1.00  0.00     0.002 A 
ATOM     24  C   UNL     1      96.804  94.020 106.191  1.00  0.00    -0.043 A 
ATOM     25  C   UNL     1      97.753  95.517 108.034  1.00  0.00     0.069 C 
ATOM     26  C   UNL     1      96.862  92.851 105.418  1.00  0.00     0.004 A 
ATOM     27  C   UNL     1      95.692  95.005 105.915  1.00  0.00     0.038 C 
ATOM     28  C   UNL     1      96.781  96.591 107.516  1.00  0.00     0.119 C 
ATOM     29  C   UNL     1      95.455  95.959 107.084  1.00  0.00     0.037 C 
BRANCH  28  30
ATOM     30  O   UNL     1      96.570  97.582 108.490  1.00  0.00    -0.393 OA
ATOM     31  H   UNL     1      97.377  98.152 108.561  1.00  0.00     0.210 HD
ENDBRANCH  28  30
ENDBRANCH   3  20
TORSDOF 4
ENDMDL
