MODEL 1
REMARK VINA RESULT:      -8.1      0.000      0.000
REMARK SMILES C[C@H](C(=O)O)c1ccc(N2Cc3ccccc3C2=O)cc1
REMARK SMILES IDX 3 1 4 2 2 3 1 4 6 5 7 6 21 7 8 8 20 9 9 10 10 11 11 12 18 13
REMARK SMILES IDX 12 14 17 15 19 16 13 17 16 18 14 19 15 20 5 21
REMARK H PARENT 5 22
ROOT
ATOM      1  C   UNL     1      96.524 109.560 112.044  1.00  0.00     0.310 C 
ATOM      2  O   UNL     1      95.756 109.552 113.045  1.00  0.00    -0.252 OA
ENDROOT
BRANCH   1   3
ATOM      3  C   UNL     1      97.349 108.350 111.696  1.00  0.00     0.126 C 
ATOM      4  C   UNL     1      96.961 107.131 112.543  1.00  0.00     0.025 C 
BRANCH   3   5
ATOM      5  C   UNL     1      97.252 108.044 110.215  1.00  0.00    -0.034 A 
ATOM      6  C   UNL     1      96.157 108.489 109.452  1.00  0.00     0.007 A 
ATOM      7  C   UNL     1      98.258 107.294 109.584  1.00  0.00     0.007 A 
ATOM      8  C   UNL     1      96.077 108.197 108.087  1.00  0.00     0.026 A 
ATOM      9  C   UNL     1      98.176 107.002 108.220  1.00  0.00     0.026 A 
ATOM     10  C   UNL     1      97.092 107.461 107.454  1.00  0.00     0.044 A 
BRANCH  10  11
ATOM     11  N   UNL     1      97.011 107.147 106.049  1.00  0.00    -0.304 N 
ATOM     12  C   UNL     1      95.766 107.095 105.268  1.00  0.00     0.162 C 
ATOM     13  C   UNL     1      98.105 106.916 105.158  1.00  0.00     0.258 C 
ATOM     14  C   UNL     1      96.241 106.864 103.863  1.00  0.00    -0.015 A 
ATOM     15  C   UNL     1      97.612 106.755 103.814  1.00  0.00     0.045 A 
ATOM     16  O   UNL     1      99.309 106.804 105.511  1.00  0.00    -0.269 OA
ATOM     17  C   UNL     1      95.473 106.743 102.703  1.00  0.00     0.006 A 
ATOM     18  C   UNL     1      98.294 106.521 102.621  1.00  0.00     0.014 A 
ATOM     19  C   UNL     1      96.134 106.510 101.483  1.00  0.00     0.000 A 
ATOM     20  C   UNL     1      97.539 106.399 101.442  1.00  0.00     0.001 A 
ENDBRANCH  10  11
ENDBRANCH   3   5
ENDBRANCH   1   3
BRANCH   1  21
ATOM     21  O   UNL     1      96.575 110.683 111.225  1.00  0.00    -0.481 OA
ATOM     22  H   UNL     1      96.331 111.571 111.586  1.00  0.00     0.296 HD
ENDBRANCH   1  21
TORSDOF 4
ENDMDL
MODEL 2
REMARK VINA RESULT:      -6.7     12.696     14.422
REMARK SMILES C[C@H](C(=O)O)c1ccc(N2Cc3ccccc3C2=O)cc1
REMARK SMILES IDX 3 1 4 2 2 3 1 4 6 5 7 6 21 7 8 8 20 9 9 10 10 11 11 12 18 13
REMARK SMILES IDX 12 14 17 15 19 16 13 17 16 18 14 19 15 20 5 21
REMARK H PARENT 5 22
ROOT
ATOM      1  C   UNL     1     106.438  94.752 111.232  1.00  0.00     0.310 C 
ATOM      2  O   UNL     1     106.632  95.578 110.299  1.00  0.00    -0.252 OA
ENDROOT
BRANCH   1   3
ATOM      3  C   UNL     1     105.723  95.166 112.491  1.00  0.00     0.126 C 
ATOM      4  C   UNL     1     106.316  96.448 113.091  1.00  0.00     0.025 C 
BRANCH   3   5
ATOM      5  C   UNL     1     104.236  95.314 112.237  1.00  0.00    -0.034 A 
ATOM      6  C   UNL     1     103.441  94.201 111.911  1.00  0.00     0.007 A 
ATOM      7  C   UNL     1     103.632  96.580 112.311  1.00  0.00     0.007 A 
ATOM      8  C   UNL     1     102.071  94.351 111.675  1.00  0.00     0.026 A 
ATOM      9  C   UNL     1     102.263  96.729 112.074  1.00  0.00     0.026 A 
ATOM     10  C   UNL     1     101.465  95.615 111.766  1.00  0.00     0.044 A 
BRANCH  10  11
ATOM     11  N   UNL     1     100.055  95.780 111.514  1.00  0.00    -0.304 N 
ATOM     12  C   UNL     1      99.037  96.012 112.549  1.00  0.00     0.162 C 
ATOM     13  C   UNL     1      99.412  95.833 110.238  1.00  0.00     0.258 C 
ATOM     14  C   UNL     1      97.780  96.245 111.762  1.00  0.00    -0.015 A 
ATOM     15  C   UNL     1      98.014  96.130 110.410  1.00  0.00     0.045 A 
ATOM     16  O   UNL     1      99.976  95.587 109.138  1.00  0.00    -0.269 OA
ATOM     17  C   UNL     1      96.501  96.526 112.244  1.00  0.00     0.006 A 
ATOM     18  C   UNL     1      96.998  96.286 109.468  1.00  0.00     0.014 A 
ATOM     19  C   UNL     1      95.456  96.692 111.316  1.00  0.00     0.000 A 
ATOM     20  C   UNL     1      95.704  96.572 109.934  1.00  0.00     0.001 A 
ENDBRANCH  10  11
ENDBRANCH   3   5
ENDBRANCH   1   3
BRANCH   1  21
ATOM     21  O   UNL     1     106.847  93.432 111.080  1.00  0.00    -0.481 OA
ATOM     22  H   UNL     1     107.107  93.094 110.186  1.00  0.00     0.296 HD
ENDBRANCH   1  21
TORSDOF 4
ENDMDL
MODEL 3
REMARK VINA RESULT:      -6.6      2.390      8.003
REMARK SMILES C[C@H](C(=O)O)c1ccc(N2Cc3ccccc3C2=O)cc1
REMARK SMILES IDX 3 1 4 2 2 3 1 4 6 5 7 6 21 7 8 8 20 9 9 10 10 11 11 12 18 13
REMARK SMILES IDX 12 14 17 15 19 16 13 17 16 18 14 19 15 20 5 21
REMARK H PARENT 5 22
ROOT
ATOM      1  C   UNL     1      97.102 105.409 104.873  1.00  0.00     0.310 C 
ATOM      2  O   UNL     1      96.567 106.210 104.059  1.00  0.00    -0.252 OA
ENDROOT
BRANCH   1   3
ATOM      3  C   UNL     1      98.335 105.800 105.643  1.00  0.00     0.126 C 
ATOM      4  C   UNL     1      99.292 106.650 104.797  1.00  0.00     0.025 C 
BRANCH   3   5
ATOM      5  C   UNL     1      97.960 106.509 106.929  1.00  0.00    -0.034 A 
ATOM      6  C   UNL     1      96.731 107.181 107.055  1.00  0.00     0.007 A 
ATOM      7  C   UNL     1      98.851 106.516 108.014  1.00  0.00     0.007 A 
ATOM      8  C   UNL     1      96.398 107.835 108.245  1.00  0.00     0.026 A 
ATOM      9  C   UNL     1      98.519 107.171 109.203  1.00  0.00     0.026 A 
ATOM     10  C   UNL     1      97.284 107.827 109.336  1.00  0.00     0.044 A 
BRANCH  10  11
ATOM     11  N   UNL     1      96.953 108.508 110.564  1.00  0.00    -0.304 N 
ATOM     12  C   UNL     1      96.506 109.906 110.656  1.00  0.00     0.162 C 
ATOM     13  C   UNL     1      96.917 107.942 111.875  1.00  0.00     0.258 C 
ATOM     14  C   UNL     1      96.171 110.074 112.109  1.00  0.00    -0.015 A 
ATOM     15  C   UNL     1      96.423 108.917 112.812  1.00  0.00     0.045 A 
ATOM     16  O   UNL     1      97.322 106.786 112.171  1.00  0.00    -0.269 OA
ATOM     17  C   UNL     1      95.685 111.211 112.756  1.00  0.00     0.006 A 
ATOM     18  C   UNL     1      96.208 108.826 114.187  1.00  0.00     0.014 A 
ATOM     19  C   UNL     1      95.455 111.148 114.142  1.00  0.00     0.000 A 
ATOM     20  C   UNL     1      95.717 109.960 114.855  1.00  0.00     0.001 A 
ENDBRANCH  10  11
ENDBRANCH   3   5
ENDBRANCH   1   3
BRANCH   1  21
ATOM     21  O   UNL     1      96.520 104.166 105.098  1.00  0.00    -0.481 OA
ATOM     22  H   UNL     1      96.473 103.800 106.017  1.00  0.00     0.296 HD
ENDBRANCH   1  21
TORSDOF 4
ENDMDL
MODEL 4
REMARK VINA RESULT:      -6.6     12.823     14.588
REMARK SMILES C[C@H](C(=O)O)c1ccc(N2Cc3ccccc3C2=O)cc1
REMARK SMILES IDX 3 1 4 2 2 3 1 4 6 5 7 6 21 7 8 8 20 9 9 10 10 11 11 12 18 13
REMARK SMILES IDX 12 14 17 15 19 16 13 17 16 18 14 19 15 20 5 21
REMARK H PARENT 5 22
ROOT
ATOM      1  C   UNL     1     106.471  94.595 111.205  1.00  0.00     0.310 C 
ATOM      2  O   UNL     1     106.611  95.433 110.274  1.00  0.00    -0.252 OA
ENDROOT
BRANCH   1   3
ATOM      3  C   UNL     1     105.781  94.976 112.488  1.00  0.00     0.126 C 
ATOM      4  C   UNL     1     106.446  96.186 113.158  1.00  0.00     0.025 C 
BRANCH   3   5
ATOM      5  C   UNL     1     104.305  95.222 112.248  1.00  0.00    -0.034 A 
ATOM      6  C   UNL     1     103.443  94.170 111.889  1.00  0.00     0.007 A 
ATOM      7  C   UNL     1     103.779  96.518 112.370  1.00  0.00     0.007 A 
ATOM      8  C   UNL     1     102.084  94.410 111.666  1.00  0.00     0.026 A 
ATOM      9  C   UNL     1     102.420  96.758 112.147  1.00  0.00     0.026 A 
ATOM     10  C   UNL     1     101.555  95.705 111.804  1.00  0.00     0.044 A 
BRANCH  10  11
ATOM     11  N   UNL     1     100.157  95.963 111.567  1.00  0.00    -0.304 N 
ATOM     12  C   UNL     1      99.505  95.920 110.249  1.00  0.00     0.162 C 
ATOM     13  C   UNL     1      99.153  96.219 112.551  1.00  0.00     0.258 C 
ATOM     14  C   UNL     1      98.053  96.125 110.567  1.00  0.00    -0.015 A 
ATOM     15  C   UNL     1      97.862  96.305 111.918  1.00  0.00     0.045 A 
ATOM     16  O   UNL     1      99.378  96.408 113.776  1.00  0.00    -0.269 OA
ATOM     17  C   UNL     1      96.974  96.163 109.682  1.00  0.00     0.006 A 
ATOM     18  C   UNL     1      96.599  96.532 112.464  1.00  0.00     0.014 A 
ATOM     19  C   UNL     1      95.686  96.386 110.204  1.00  0.00     0.000 A 
ATOM     20  C   UNL     1      95.500  96.571 111.589  1.00  0.00     0.001 A 
ENDBRANCH  10  11
ENDBRANCH   3   5
ENDBRANCH   1   3
BRANCH   1  21
ATOM     21  O   UNL     1     106.918  93.289 111.029  1.00  0.00    -0.481 OA
ATOM     22  H   UNL     1     107.067  92.707 111.816  1.00  0.00     0.296 HD
ENDBRANCH   1  21
TORSDOF 4
ENDMDL
MODEL 5
REMARK VINA RESULT:      -6.5      1.735      2.333
REMARK SMILES C[C@H](C(=O)O)c1ccc(N2Cc3ccccc3C2=O)cc1
REMARK SMILES IDX 3 1 4 2 2 3 1 4 6 5 7 6 21 7 8 8 20 9 9 10 10 11 11 12 18 13
REMARK SMILES IDX 12 14 17 15 19 16 13 17 16 18 14 19 15 20 5 21
REMARK H PARENT 5 22
ROOT
ATOM      1  C   UNL     1      97.191 107.929 114.184  1.00  0.00     0.310 C 
ATOM      2  O   UNL     1      96.990 106.724 114.497  1.00  0.00    -0.252 OA
ENDROOT
BRANCH   1   3
ATOM      3  C   UNL     1      96.220 108.668 113.302  1.00  0.00     0.126 C 
ATOM      4  C   UNL     1      96.263 110.182 113.546  1.00  0.00     0.025 C 
BRANCH   3   5
ATOM      5  C   UNL     1      96.465 108.339 111.843  1.00  0.00    -0.034 A 
ATOM      6  C   UNL     1      95.463 108.538 110.876  1.00  0.00     0.007 A 
ATOM      7  C   UNL     1      97.703 107.814 111.438  1.00  0.00     0.007 A 
ATOM      8  C   UNL     1      95.700 108.227 109.533  1.00  0.00     0.026 A 
ATOM      9  C   UNL     1      97.938 107.503 110.097  1.00  0.00     0.026 A 
ATOM     10  C   UNL     1      96.944 107.717 109.127  1.00  0.00     0.044 A 
BRANCH  10  11
ATOM     11  N   UNL     1      97.193 107.384 107.747  1.00  0.00    -0.304 N 
ATOM     12  C   UNL     1      96.243 107.599 106.645  1.00  0.00     0.162 C 
ATOM     13  C   UNL     1      98.409 106.875 107.193  1.00  0.00     0.258 C 
ATOM     14  C   UNL     1      97.028 107.217 105.423  1.00  0.00    -0.015 A 
ATOM     15  C   UNL     1      98.292 106.789 105.760  1.00  0.00     0.045 A 
ATOM     16  O   UNL     1      99.403 106.496 107.868  1.00  0.00    -0.269 OA
ATOM     17  C   UNL     1      96.613 107.241 104.091  1.00  0.00     0.006 A 
ATOM     18  C   UNL     1      99.209 106.363 104.801  1.00  0.00     0.014 A 
ATOM     19  C   UNL     1      97.518 106.820 103.100  1.00  0.00     0.000 A 
ATOM     20  C   UNL     1      98.811 106.382 103.453  1.00  0.00     0.001 A 
ENDBRANCH  10  11
ENDBRANCH   3   5
ENDBRANCH   1   3
BRANCH   1  21
ATOM     21  O   UNL     1      98.297 108.599 114.696  1.00  0.00    -0.481 OA
ATOM     22  H   UNL     1      99.210 108.315 114.439  1.00  0.00     0.296 HD
ENDBRANCH   1  21
TORSDOF 4
ENDMDL
MODEL 6
REMARK VINA RESULT:      -6.5     13.762     16.257
REMARK SMILES C[C@H](C(=O)O)c1ccc(N2Cc3ccccc3C2=O)cc1
REMARK SMILES IDX 3 1 4 2 2 3 1 4 6 5 7 6 21 7 8 8 20 9 9 10 10 11 11 12 18 13
REMARK SMILES IDX 12 14 17 15 19 16 13 17 16 18 14 19 15 20 5 21
REMARK H PARENT 5 22
ROOT
ATOM      1  C   UNL     1     107.867  93.221 113.382  1.00  0.00     0.310 C 
ATOM      2  O   UNL     1     107.081  92.703 114.221  1.00  0.00    -0.252 OA
ENDROOT
BRANCH   1   3
ATOM      3  C   UNL     1     107.378  94.259 112.407  1.00  0.00     0.126 C 
ATOM      4  C   UNL     1     107.309  93.712 110.975  1.00  0.00     0.025 C 
BRANCH   3   5
ATOM      5  C   UNL     1     106.040  94.818 112.848  1.00  0.00    -0.034 A 
ATOM      6  C   UNL     1     104.850  94.457 112.190  1.00  0.00     0.007 A 
ATOM      7  C   UNL     1     105.974  95.724 113.919  1.00  0.00     0.007 A 
ATOM      8  C   UNL     1     103.623  94.983 112.603  1.00  0.00     0.026 A 
ATOM      9  C   UNL     1     104.747  96.250 114.331  1.00  0.00     0.026 A 
ATOM     10  C   UNL     1     103.556  95.876 113.686  1.00  0.00     0.044 A 
BRANCH  10  11
ATOM     11  N   UNL     1     102.295  96.430 114.112  1.00  0.00    -0.304 N 
ATOM     12  C   UNL     1     102.143  97.536 115.070  1.00  0.00     0.162 C 
ATOM     13  C   UNL     1     100.996  96.076 113.632  1.00  0.00     0.258 C 
ATOM     14  C   UNL     1     100.667  97.810 115.060  1.00  0.00    -0.015 A 
ATOM     15  C   UNL     1     100.008  96.943 114.218  1.00  0.00     0.045 A 
ATOM     16  O   UNL     1     100.753  95.106 112.865  1.00  0.00    -0.269 OA
ATOM     17  C   UNL     1      99.965  98.775 115.783  1.00  0.00     0.006 A 
ATOM     18  C   UNL     1      98.624  96.984 114.049  1.00  0.00     0.014 A 
ATOM     19  C   UNL     1      98.568  98.843 115.631  1.00  0.00     0.000 A 
ATOM     20  C   UNL     1      97.900  97.951 114.768  1.00  0.00     0.001 A 
ENDBRANCH  10  11
ENDBRANCH   3   5
ENDBRANCH   1   3
BRANCH   1  21
ATOM     21  O   UNL     1     109.212  92.865 113.386  1.00  0.00    -0.481 OA
ATOM     22  H   UNL     1     109.485  91.968 113.702  1.00  0.00     0.296 HD
ENDBRANCH   1  21
TORSDOF 4
ENDMDL
MODEL 7
REMARK VINA RESULT:      -6.4     13.771     15.676
REMARK SMILES C[C@H](C(=O)O)c1ccc(N2Cc3ccccc3C2=O)cc1
REMARK SMILES IDX 3 1 4 2 2 3 1 4 6 5 7 6 21 7 8 8 20 9 9 10 10 11 11 12 18 13
REMARK SMILES IDX 12 14 17 15 19 16 13 17 16 18 14 19 15 20 5 21
REMARK H PARENT 5 22
ROOT
ATOM      1  C   UNL     1     107.507  93.676 113.515  1.00  0.00     0.310 C 
ATOM      2  O   UNL     1     107.043  93.971 114.650  1.00  0.00    -0.252 OA
ENDROOT
BRANCH   1   3
ATOM      3  C   UNL     1     107.055  94.413 112.282  1.00  0.00     0.126 C 
ATOM      4  C   UNL     1     107.412  93.652 110.998  1.00  0.00     0.025 C 
BRANCH   3   5
ATOM      5  C   UNL     1     105.571  94.710 112.350  1.00  0.00    -0.034 A 
ATOM      6  C   UNL     1     104.620  93.674 112.307  1.00  0.00     0.007 A 
ATOM      7  C   UNL     1     105.122  96.037 112.445  1.00  0.00     0.007 A 
ATOM      8  C   UNL     1     103.253  93.960 112.366  1.00  0.00     0.026 A 
ATOM      9  C   UNL     1     103.756  96.323 112.504  1.00  0.00     0.026 A 
ATOM     10  C   UNL     1     102.806  95.288 112.478  1.00  0.00     0.044 A 
BRANCH  10  11
ATOM     11  N   UNL     1     101.398  95.593 112.529  1.00  0.00    -0.304 N 
ATOM     12  C   UNL     1     100.719  96.241 113.662  1.00  0.00     0.162 C 
ATOM     13  C   UNL     1     100.441  95.406 111.485  1.00  0.00     0.258 C 
ATOM     14  C   UNL     1      99.318  96.446 113.162  1.00  0.00    -0.015 A 
ATOM     15  C   UNL     1      99.169  95.947 111.888  1.00  0.00     0.045 A 
ATOM     16  O   UNL     1     100.666  94.797 110.404  1.00  0.00    -0.269 OA
ATOM     17  C   UNL     1      98.243  97.035 113.829  1.00  0.00     0.006 A 
ATOM     18  C   UNL     1      97.952  96.002 111.209  1.00  0.00     0.014 A 
ATOM     19  C   UNL     1      97.003  97.108 113.168  1.00  0.00     0.000 A 
ATOM     20  C   UNL     1      96.858  96.593 111.864  1.00  0.00     0.001 A 
ENDBRANCH  10  11
ENDBRANCH   3   5
ENDBRANCH   1   3
BRANCH   1  21
ATOM     21  O   UNL     1     108.483  92.691 113.405  1.00  0.00    -0.481 OA
ATOM     22  H   UNL     1     108.220  91.749 113.255  1.00  0.00     0.296 HD
ENDBRANCH   1  21
TORSDOF 4
ENDMDL
MODEL 8
REMARK VINA RESULT:      -6.4     13.765     15.636
REMARK SMILES C[C@H](C(=O)O)c1ccc(N2Cc3ccccc3C2=O)cc1
REMARK SMILES IDX 3 1 4 2 2 3 1 4 6 5 7 6 21 7 8 8 20 9 9 10 10 11 11 12 18 13
REMARK SMILES IDX 12 14 17 15 19 16 13 17 16 18 14 19 15 20 5 21
REMARK H PARENT 5 22
ROOT
ATOM      1  C   UNL     1     107.458  93.715 113.527  1.00  0.00     0.310 C 
ATOM      2  O   UNL     1     106.991  94.050 114.649  1.00  0.00    -0.252 OA
ENDROOT
BRANCH   1   3
ATOM      3  C   UNL     1     107.071  94.460 112.277  1.00  0.00     0.126 C 
ATOM      4  C   UNL     1     107.452  93.686 111.008  1.00  0.00     0.025 C 
BRANCH   3   5
ATOM      5  C   UNL     1     105.595  94.799 112.292  1.00  0.00    -0.034 A 
ATOM      6  C   UNL     1     104.617  93.792 112.196  1.00  0.00     0.007 A 
ATOM      7  C   UNL     1     105.181  96.138 112.389  1.00  0.00     0.007 A 
ATOM      8  C   UNL     1     103.258  94.118 112.206  1.00  0.00     0.026 A 
ATOM      9  C   UNL     1     103.822  96.463 112.398  1.00  0.00     0.026 A 
ATOM     10  C   UNL     1     102.845  95.456 112.320  1.00  0.00     0.044 A 
BRANCH  10  11
ATOM     11  N   UNL     1     101.445  95.802 112.321  1.00  0.00    -0.304 N 
ATOM     12  C   UNL     1     100.559  95.726 111.150  1.00  0.00     0.162 C 
ATOM     13  C   UNL     1     100.659  96.191 113.450  1.00  0.00     0.258 C 
ATOM     14  C   UNL     1      99.206  96.057 111.710  1.00  0.00    -0.015 A 
ATOM     15  C   UNL     1      99.281  96.333 113.057  1.00  0.00     0.045 A 
ATOM     16  O   UNL     1     101.120  96.437 114.596  1.00  0.00    -0.269 OA
ATOM     17  C   UNL     1      97.986  96.119 111.036  1.00  0.00     0.006 A 
ATOM     18  C   UNL     1      98.158  96.685 113.804  1.00  0.00     0.014 A 
ATOM     19  C   UNL     1      96.834  96.469 111.764  1.00  0.00     0.000 A 
ATOM     20  C   UNL     1      96.920  96.751 113.142  1.00  0.00     0.001 A 
ENDBRANCH  10  11
ENDBRANCH   3   5
ENDBRANCH   1   3
BRANCH   1  21
ATOM     21  O   UNL     1     108.378  92.674 113.446  1.00  0.00    -0.481 OA
ATOM     22  H   UNL     1     109.330  92.869 113.257  1.00  0.00     0.296 HD
ENDBRANCH   1  21
TORSDOF 4
ENDMDL
MODEL 9
REMARK VINA RESULT:      -6.3     13.774     16.199
REMARK SMILES C[C@H](C(=O)O)c1ccc(N2Cc3ccccc3C2=O)cc1
REMARK SMILES IDX 3 1 4 2 2 3 1 4 6 5 7 6 21 7 8 8 20 9 9 10 10 11 11 12 18 13
REMARK SMILES IDX 12 14 17 15 19 16 13 17 16 18 14 19 15 20 5 21
REMARK H PARENT 5 22
ROOT
ATOM      1  C   UNL     1     107.826  93.233 113.431  1.00  0.00     0.310 C 
ATOM      2  O   UNL     1     107.032  92.834 114.326  1.00  0.00    -0.252 OA
ENDROOT
BRANCH   1   3
ATOM      3  C   UNL     1     107.385  94.242 112.404  1.00  0.00     0.126 C 
ATOM      4  C   UNL     1     107.388  93.654 110.987  1.00  0.00     0.025 C 
BRANCH   3   5
ATOM      5  C   UNL     1     106.026  94.810 112.761  1.00  0.00    -0.034 A 
ATOM      6  C   UNL     1     104.859  94.354 112.122  1.00  0.00     0.007 A 
ATOM      7  C   UNL     1     105.918  95.817 113.733  1.00  0.00     0.007 A 
ATOM      8  C   UNL     1     103.611  94.889 112.457  1.00  0.00     0.026 A 
ATOM      9  C   UNL     1     104.671  96.352 114.067  1.00  0.00     0.026 A 
ATOM     10  C   UNL     1     103.502  95.885 113.442  1.00  0.00     0.044 A 
BRANCH  10  11
ATOM     11  N   UNL     1     102.220  96.449 113.786  1.00  0.00    -0.304 N 
ATOM     12  C   UNL     1     100.949  96.113 113.127  1.00  0.00     0.162 C 
ATOM     13  C   UNL     1     101.941  97.352 114.858  1.00  0.00     0.258 C 
ATOM     14  C   UNL     1      99.926  96.857 113.936  1.00  0.00    -0.015 A 
ATOM     15  C   UNL     1     100.522  97.583 114.942  1.00  0.00     0.045 A 
ATOM     16  O   UNL     1     102.814  97.911 115.573  1.00  0.00    -0.269 OA
ATOM     17  C   UNL     1      98.542  96.885 113.758  1.00  0.00     0.006 A 
ATOM     18  C   UNL     1      99.783  98.374 115.821  1.00  0.00     0.014 A 
ATOM     19  C   UNL     1      97.770  97.672 114.632  1.00  0.00     0.000 A 
ATOM     20  C   UNL     1      98.388  98.414 115.659  1.00  0.00     0.001 A 
ENDBRANCH  10  11
ENDBRANCH   3   5
ENDBRANCH   1   3
BRANCH   1  21
ATOM     21  O   UNL     1     109.138  92.772 113.419  1.00  0.00    -0.481 OA
ATOM     22  H   UNL     1     109.598  92.610 112.557  1.00  0.00     0.296 HD
ENDBRANCH   1  21
TORSDOF 4
ENDMDL
MODEL 10
REMARK VINA RESULT:      -6.2     14.273     15.980
REMARK SMILES C[C@H](C(=O)O)c1ccc(N2Cc3ccccc3C2=O)cc1
REMARK SMILES IDX 3 1 4 2 2 3 1 4 6 5 7 6 21 7 8 8 20 9 9 10 10 11 11 12 18 13
REMARK SMILES IDX 12 14 17 15 19 16 13 17 16 18 14 19 15 20 5 21
REMARK H PARENT 5 22
ROOT
ATOM      1  C   UNL     1     107.780  93.420 113.056  1.00  0.00     0.310 C 
ATOM      2  O   UNL     1     107.468  93.931 111.946  1.00  0.00    -0.252 OA
ENDROOT
BRANCH   1   3
ATOM      3  C   UNL     1     106.735  93.178 114.113  1.00  0.00     0.126 C 
ATOM      4  C   UNL     1     107.145  93.768 115.468  1.00  0.00     0.025 C 
BRANCH   3   5
ATOM      5  C   UNL     1     105.388  93.711 113.666  1.00  0.00    -0.034 A 
ATOM      6  C   UNL     1     105.058  95.069 113.820  1.00  0.00     0.007 A 
ATOM      7  C   UNL     1     104.441  92.843 113.100  1.00  0.00     0.007 A 
ATOM      8  C   UNL     1     103.811  95.548 113.408  1.00  0.00     0.026 A 
ATOM      9  C   UNL     1     103.194  93.322 112.689  1.00  0.00     0.026 A 
ATOM     10  C   UNL     1     102.870  94.682 112.826  1.00  0.00     0.044 A 
BRANCH  10  11
ATOM     11  N   UNL     1     101.577  95.166 112.408  1.00  0.00    -0.304 N 
ATOM     12  C   UNL     1     101.065  95.112 111.030  1.00  0.00     0.162 C 
ATOM     13  C   UNL     1     100.548  95.696 113.245  1.00  0.00     0.258 C 
ATOM     14  C   UNL     1      99.654  95.608 111.160  1.00  0.00    -0.015 A 
ATOM     15  C   UNL     1      99.367  95.953 112.461  1.00  0.00     0.045 A 
ATOM     16  O   UNL     1     100.682  95.961 114.470  1.00  0.00    -0.269 OA
ATOM     17  C   UNL     1      98.696  95.754 110.155  1.00  0.00     0.006 A 
ATOM     18  C   UNL     1      98.123  96.459 112.836  1.00  0.00     0.014 A 
ATOM     19  C   UNL     1      97.430  96.259 110.504  1.00  0.00     0.000 A 
ATOM     20  C   UNL     1      97.145  96.610 111.839  1.00  0.00     0.001 A 
ENDBRANCH  10  11
ENDBRANCH   3   5
ENDBRANCH   1   3
BRANCH   1  21
ATOM     21  O   UNL     1     109.094  93.032 113.291  1.00  0.00    -0.481 OA
ATOM     22  H   UNL     1     109.401  92.859 114.216  1.00  0.00     0.296 HD
ENDBRANCH   1  21
TORSDOF 4
ENDMDL
MODEL 11
REMARK VINA RESULT:      -6.2     13.298     16.301
REMARK SMILES C[C@H](C(=O)O)c1ccc(N2Cc3ccccc3C2=O)cc1
REMARK SMILES IDX 3 1 4 2 2 3 1 4 6 5 7 6 21 7 8 8 20 9 9 10 10 11 11 12 18 13
REMARK SMILES IDX 12 14 17 15 19 16 13 17 16 18 14 19 15 20 5 21
REMARK H PARENT 5 22
ROOT
ATOM      1  C   UNL     1     107.155  94.374 110.788  1.00  0.00     0.310 C 
ATOM      2  O   UNL     1     106.512  95.365 110.346  1.00  0.00    -0.252 OA
ENDROOT
BRANCH   1   3
ATOM      3  C   UNL     1     106.782  93.737 112.100  1.00  0.00     0.126 C 
ATOM      4  C   UNL     1     108.012  93.476 112.979  1.00  0.00     0.025 C 
BRANCH   3   5
ATOM      5  C   UNL     1     105.753  94.577 112.830  1.00  0.00    -0.034 A 
ATOM      6  C   UNL     1     106.117  95.775 113.471  1.00  0.00     0.007 A 
ATOM      7  C   UNL     1     104.414  94.158 112.887  1.00  0.00     0.007 A 
ATOM      8  C   UNL     1     105.159  96.540 114.144  1.00  0.00     0.026 A 
ATOM      9  C   UNL     1     103.458  94.922 113.561  1.00  0.00     0.026 A 
ATOM     10  C   UNL     1     103.817  96.128 114.186  1.00  0.00     0.044 A 
BRANCH  10  11
ATOM     11  N   UNL     1     102.825  96.905 114.887  1.00  0.00    -0.304 N 
ATOM     12  C   UNL     1     103.061  97.633 116.144  1.00  0.00     0.162 C 
ATOM     13  C   UNL     1     101.489  97.177 114.459  1.00  0.00     0.258 C 
ATOM     14  C   UNL     1     101.773  98.371 116.369  1.00  0.00    -0.015 A 
ATOM     15  C   UNL     1     100.860  98.089 115.378  1.00  0.00     0.045 A 
ATOM     16  O   UNL     1     100.929  96.641 113.466  1.00  0.00    -0.269 OA
ATOM     17  C   UNL     1     101.446  99.232 117.418  1.00  0.00     0.006 A 
ATOM     18  C   UNL     1      99.579  98.641 115.374  1.00  0.00     0.014 A 
ATOM     19  C   UNL     1     100.162  99.806 117.438  1.00  0.00     0.000 A 
ATOM     20  C   UNL     1      99.232  99.512 116.421  1.00  0.00     0.001 A 
ENDBRANCH  10  11
ENDBRANCH   3   5
ENDBRANCH   1   3
BRANCH   1  21
ATOM     21  O   UNL     1     108.191  93.833 110.034  1.00  0.00    -0.481 OA
ATOM     22  H   UNL     1     109.060  94.303 109.978  1.00  0.00     0.296 HD
ENDBRANCH   1  21
TORSDOF 4
ENDMDL
MODEL 12
REMARK VINA RESULT:      -6.1      2.032      8.058
REMARK SMILES C[C@H](C(=O)O)c1ccc(N2Cc3ccccc3C2=O)cc1
REMARK SMILES IDX 3 1 4 2 2 3 1 4 6 5 7 6 21 7 8 8 20 9 9 10 10 11 11 12 18 13
REMARK SMILES IDX 12 14 17 15 19 16 13 17 16 18 14 19 15 20 5 21
REMARK H PARENT 5 22
ROOT
ATOM      1  C   UNL     1      97.123 106.077 104.332  1.00  0.00     0.310 C 
ATOM      2  O   UNL     1      96.302 105.139 104.145  1.00  0.00    -0.252 OA
ENDROOT
BRANCH   1   3
ATOM      3  C   UNL     1      98.282 105.910 105.279  1.00  0.00     0.126 C 
ATOM      4  C   UNL     1      99.569 106.533 104.723  1.00  0.00     0.025 C 
BRANCH   3   5
ATOM      5  C   UNL     1      97.943 106.474 106.644  1.00  0.00    -0.034 A 
ATOM      6  C   UNL     1      98.874 106.433 107.698  1.00  0.00     0.007 A 
ATOM      7  C   UNL     1      96.678 107.037 106.879  1.00  0.00     0.007 A 
ATOM      8  C   UNL     1      98.548 106.953 108.954  1.00  0.00     0.026 A 
ATOM      9  C   UNL     1      96.353 107.555 108.134  1.00  0.00     0.026 A 
ATOM     10  C   UNL     1      97.288 107.530 109.183  1.00  0.00     0.044 A 
BRANCH  10  11
ATOM     11  N   UNL     1      96.940 108.060 110.478  1.00  0.00    -0.304 N 
ATOM     12  C   UNL     1      97.451 107.550 111.760  1.00  0.00     0.162 C 
ATOM     13  C   UNL     1      96.123 109.201 110.747  1.00  0.00     0.258 C 
ATOM     14  C   UNL     1      96.898 108.516 112.768  1.00  0.00    -0.015 A 
ATOM     15  C   UNL     1      96.117 109.473 112.161  1.00  0.00     0.045 A 
ATOM     16  O   UNL     1      95.455 109.827 109.881  1.00  0.00    -0.269 OA
ATOM     17  C   UNL     1      97.080 108.514 114.151  1.00  0.00     0.006 A 
ATOM     18  C   UNL     1      95.476 110.475 112.888  1.00  0.00     0.014 A 
ATOM     19  C   UNL     1      96.448 109.515 114.912  1.00  0.00     0.000 A 
ATOM     20  C   UNL     1      95.649 110.491 114.283  1.00  0.00     0.001 A 
ENDBRANCH  10  11
ENDBRANCH   3   5
ENDBRANCH   1   3
BRANCH   1  21
ATOM     21  O   UNL     1      96.987 107.265 103.620  1.00  0.00    -0.481 OA
ATOM     22  H   UNL     1      97.580 107.451 102.850  1.00  0.00     0.296 HD
ENDBRANCH   1  21
TORSDOF 4
ENDMDL
MODEL 13
REMARK VINA RESULT:      -6.1      2.531      8.279
REMARK SMILES C[C@H](C(=O)O)c1ccc(N2Cc3ccccc3C2=O)cc1
REMARK SMILES IDX 3 1 4 2 2 3 1 4 6 5 7 6 21 7 8 8 20 9 9 10 10 11 11 12 18 13
REMARK SMILES IDX 12 14 17 15 19 16 13 17 16 18 14 19 15 20 5 21
REMARK H PARENT 5 22
ROOT
ATOM      1  C   UNL     1      98.920 106.836 105.435  1.00  0.00     0.310 C 
ATOM      2  O   UNL     1      99.577 105.825 105.066  1.00  0.00    -0.252 OA
ENDROOT
BRANCH   1   3
ATOM      3  C   UNL     1      97.476 106.709 105.843  1.00  0.00     0.126 C 
ATOM      4  C   UNL     1      96.970 105.266 105.715  1.00  0.00     0.025 C 
BRANCH   3   5
ATOM      5  C   UNL     1      97.268 107.242 107.247  1.00  0.00    -0.034 A 
ATOM      6  C   UNL     1      98.187 106.960 108.274  1.00  0.00     0.007 A 
ATOM      7  C   UNL     1      96.137 108.019 107.544  1.00  0.00     0.007 A 
ATOM      8  C   UNL     1      97.982 107.454 109.565  1.00  0.00     0.026 A 
ATOM      9  C   UNL     1      95.932 108.511 108.836  1.00  0.00     0.026 A 
ATOM     10  C   UNL     1      96.858 108.245 109.858  1.00  0.00     0.044 A 
BRANCH  10  11
ATOM     11  N   UNL     1      96.634 108.749 111.190  1.00  0.00    -0.304 N 
ATOM     12  C   UNL     1      96.217 110.123 111.510  1.00  0.00     0.162 C 
ATOM     13  C   UNL     1      96.691 108.006 112.409  1.00  0.00     0.258 C 
ATOM     14  C   UNL     1      95.999 110.088 112.995  1.00  0.00    -0.015 A 
ATOM     15  C   UNL     1      96.287 108.844 113.509  1.00  0.00     0.045 A 
ATOM     16  O   UNL     1      97.100 106.819 112.509  1.00  0.00    -0.269 OA
ATOM     17  C   UNL     1      95.582 111.126 113.829  1.00  0.00     0.006 A 
ATOM     18  C   UNL     1      96.178 108.562 114.870  1.00  0.00     0.014 A 
ATOM     19  C   UNL     1      95.460 110.871 115.207  1.00  0.00     0.000 A 
ATOM     20  C   UNL     1      95.758 109.594 115.726  1.00  0.00     0.001 A 
ENDBRANCH  10  11
ENDBRANCH   3   5
ENDBRANCH   1   3
BRANCH   1  21
ATOM     21  O   UNL     1      99.547 108.075 105.512  1.00  0.00    -0.481 OA
ATOM     22  H   UNL     1      99.049 108.861 105.849  1.00  0.00     0.296 HD
ENDBRANCH   1  21
TORSDOF 4
ENDMDL
MODEL 14
REMARK VINA RESULT:      -6.0     14.292     16.340
REMARK SMILES C[C@H](C(=O)O)c1ccc(N2Cc3ccccc3C2=O)cc1
REMARK SMILES IDX 3 1 4 2 2 3 1 4 6 5 7 6 21 7 8 8 20 9 9 10 10 11 11 12 18 13
REMARK SMILES IDX 12 14 17 15 19 16 13 17 16 18 14 19 15 20 5 21
REMARK H PARENT 5 22
ROOT
ATOM      1  C   UNL     1      98.553  95.436 108.804  1.00  0.00     0.310 C 
ATOM      2  O   UNL     1      97.776  94.493 108.493  1.00  0.00    -0.252 OA
ENDROOT
BRANCH   1   3
ATOM      3  C   UNL     1      98.681  95.889 110.235  1.00  0.00     0.126 C 
ATOM      4  C   UNL     1      97.519  95.385 111.100  1.00  0.00     0.025 C 
BRANCH   3   5
ATOM      5  C   UNL     1     100.019  95.469 110.811  1.00  0.00    -0.034 A 
ATOM      6  C   UNL     1     100.418  94.120 110.810  1.00  0.00     0.007 A 
ATOM      7  C   UNL     1     100.878  96.429 111.369  1.00  0.00     0.007 A 
ATOM      8  C   UNL     1     101.652  93.744 111.348  1.00  0.00     0.026 A 
ATOM      9  C   UNL     1     102.111  96.053 111.908  1.00  0.00     0.026 A 
ATOM     10  C   UNL     1     102.517  94.709 111.892  1.00  0.00     0.044 A 
BRANCH  10  11
ATOM     11  N   UNL     1     103.788  94.328 112.458  1.00  0.00    -0.304 N 
ATOM     12  C   UNL     1     105.029  94.143 111.691  1.00  0.00     0.162 C 
ATOM     13  C   UNL     1     104.090  94.148 113.843  1.00  0.00     0.258 C 
ATOM     14  C   UNL     1     106.063  93.890 112.750  1.00  0.00    -0.015 A 
ATOM     15  C   UNL     1     105.497  93.889 114.004  1.00  0.00     0.045 A 
ATOM     16  O   UNL     1     103.237  94.148 114.771  1.00  0.00    -0.269 OA
ATOM     17  C   UNL     1     107.429  93.657 112.582  1.00  0.00     0.006 A 
ATOM     18  C   UNL     1     106.250  93.658 115.155  1.00  0.00     0.014 A 
ATOM     19  C   UNL     1     108.215  93.425 113.725  1.00  0.00     0.000 A 
ATOM     20  C   UNL     1     107.628  93.425 115.007  1.00  0.00     0.001 A 
ENDBRANCH  10  11
ENDBRANCH   3   5
ENDBRANCH   1   3
BRANCH   1  21
ATOM     21  O   UNL     1      99.336  96.036 107.823  1.00  0.00    -0.481 OA
ATOM     22  H   UNL     1     100.290  96.229 108.001  1.00  0.00     0.296 HD
ENDBRANCH   1  21
TORSDOF 4
ENDMDL
MODEL 15
REMARK VINA RESULT:      -6.0     13.768     16.406
REMARK SMILES C[C@H](C(=O)O)c1ccc(N2Cc3ccccc3C2=O)cc1
REMARK SMILES IDX 3 1 4 2 2 3 1 4 6 5 7 6 21 7 8 8 20 9 9 10 10 11 11 12 18 13
REMARK SMILES IDX 12 14 17 15 19 16 13 17 16 18 14 19 15 20 5 21
REMARK H PARENT 5 22
ROOT
ATOM      1  C   UNL     1     106.916  94.905 110.524  1.00  0.00     0.310 C 
ATOM      2  O   UNL     1     106.375  96.038 110.409  1.00  0.00    -0.252 OA
ENDROOT
BRANCH   1   3
ATOM      3  C   UNL     1     106.513  93.968 111.631  1.00  0.00     0.126 C 
ATOM      4  C   UNL     1     107.686  93.651 112.568  1.00  0.00     0.025 C 
BRANCH   3   5
ATOM      5  C   UNL     1     105.331  94.524 112.399  1.00  0.00    -0.034 A 
ATOM      6  C   UNL     1     105.517  95.282 113.569  1.00  0.00     0.007 A 
ATOM      7  C   UNL     1     104.022  94.274 111.955  1.00  0.00     0.007 A 
ATOM      8  C   UNL     1     104.418  95.786 114.271  1.00  0.00     0.026 A 
ATOM      9  C   UNL     1     102.924  94.777 112.657  1.00  0.00     0.026 A 
ATOM     10  C   UNL     1     103.110  95.549 113.816  1.00  0.00     0.044 A 
BRANCH  10  11
ATOM     11  N   UNL     1     101.971  96.057 114.540  1.00  0.00    -0.304 N 
ATOM     12  C   UNL     1     101.415  97.411 114.392  1.00  0.00     0.162 C 
ATOM     13  C   UNL     1     101.140  95.332 115.450  1.00  0.00     0.258 C 
ATOM     14  C   UNL     1     100.183  97.381 115.249  1.00  0.00    -0.015 A 
ATOM     15  C   UNL     1     100.039  96.160 115.868  1.00  0.00     0.045 A 
ATOM     16  O   UNL     1     101.380  94.169 115.871  1.00  0.00    -0.269 OA
ATOM     17  C   UNL     1      99.261  98.406 115.468  1.00  0.00     0.006 A 
ATOM     18  C   UNL     1      98.979  95.889 116.732  1.00  0.00     0.014 A 
ATOM     19  C   UNL     1      98.179  98.161 116.333  1.00  0.00     0.000 A 
ATOM     20  C   UNL     1      98.039  96.907 116.963  1.00  0.00     0.001 A 
ENDBRANCH  10  11
ENDBRANCH   3   5
ENDBRANCH   1   3
BRANCH   1  21
ATOM     21  O   UNL     1     107.861  94.495 109.589  1.00  0.00    -0.481 OA
ATOM     22  H   UNL     1     107.815  94.830 108.659  1.00  0.00     0.296 HD
ENDBRANCH   1  21
TORSDOF 4
ENDMDL
