MODEL 1
REMARK VINA RESULT:      -8.1      0.000      0.000
REMARK SMILES Cc1ccc(-c2csc(NC(=O)Cn3ccc4ccccc43)n2)cc1
REMARK SMILES IDX 8 1 23 2 6 3 9 4 7 5 10 6 11 7 12 8 13 10 14 11 22 12 15 13
REMARK SMILES IDX 17 14 21 15 16 16 18 17 20 18 19 19 5 20 4 21 24 22 3 23
REMARK SMILES IDX 25 24 2 25 1 26
REMARK H PARENT 10 9
ROOT
ATOM      1  S   UNL     1      96.073 109.917 111.136  1.00  0.00    -0.105 S 
ATOM      2  N   UNL     1      96.949 107.486 111.074  1.00  0.00    -0.220 NA
ATOM      3  C   UNL     1      96.964 107.901 112.390  1.00  0.00     0.084 A 
ATOM      4  C   UNL     1      96.502 108.467 110.350  1.00  0.00     0.189 A 
ATOM      5  C   UNL     1      96.524 109.188 112.621  1.00  0.00     0.097 A 
ENDROOT
BRANCH   4   6
ATOM      6  N   UNL     1      96.325 108.470 108.964  1.00  0.00    -0.300 N 
ATOM      7  C   UNL     1      97.018 107.685 108.048  1.00  0.00     0.246 C 
ATOM      8  O   UNL     1      97.896 106.859 108.275  1.00  0.00    -0.273 OA
ATOM      9  H   UNL     1      95.616 109.117 108.626  1.00  0.00     0.172 HD
BRANCH   7  10
ATOM     10  C   UNL     1      96.534 107.980 106.640  1.00  0.00     0.222 C 
BRANCH  10  11
ATOM     11  N   UNL     1      97.417 107.457 105.619  1.00  0.00    -0.338 N 
ATOM     12  C   UNL     1      97.041 107.091 104.346  1.00  0.00     0.048 A 
ATOM     13  C   UNL     1      98.760 107.257 105.790  1.00  0.00     0.087 A 
ATOM     14  C   UNL     1      98.190 106.644 103.691  1.00  0.00    -0.000 A 
ATOM     15  C   UNL     1      95.785 107.122 103.731  1.00  0.00     0.027 A 
ATOM     16  C   UNL     1      99.267 106.753 104.614  1.00  0.00     0.028 A 
ATOM     17  C   UNL     1      98.082 106.205 102.356  1.00  0.00     0.010 A 
ATOM     18  C   UNL     1      95.702 106.682 102.407  1.00  0.00     0.002 A 
ATOM     19  C   UNL     1      96.832 106.230 101.728  1.00  0.00     0.001 A 
ENDBRANCH  10  11
ENDBRANCH   7  10
ENDBRANCH   4   6
BRANCH   3  20
ATOM     20  C   UNL     1      97.410 107.038 113.445  1.00  0.00     0.001 A 
ATOM     21  C   UNL     1      97.249 105.656 113.333  1.00  0.00     0.010 A 
ATOM     22  C   UNL     1      98.006 107.579 114.586  1.00  0.00     0.010 A 
ATOM     23  C   UNL     1      97.683 104.817 114.359  1.00  0.00     0.004 A 
ATOM     24  C   UNL     1      98.440 106.739 115.612  1.00  0.00     0.004 A 
ATOM     25  C   UNL     1      98.278 105.358 115.499  1.00  0.00    -0.051 A 
ATOM     26  C   UNL     1      98.745 104.460 116.594  1.00  0.00     0.044 C 
ENDBRANCH   3  20
TORSDOF 4
ENDMDL
MODEL 2
REMARK VINA RESULT:      -7.9      1.663      9.638
REMARK SMILES Cc1ccc(-c2csc(NC(=O)Cn3ccc4ccccc43)n2)cc1
REMARK SMILES IDX 8 1 23 2 6 3 9 4 7 5 10 6 11 7 12 8 13 10 14 11 22 12 15 13
REMARK SMILES IDX 17 14 21 15 16 16 18 17 20 18 19 19 5 20 4 21 24 22 3 23
REMARK SMILES IDX 25 24 2 25 1 26
REMARK H PARENT 10 9
ROOT
ATOM      1  S   UNL     1      98.887 106.562 108.483  1.00  0.00    -0.105 S 
ATOM      2  N   UNL     1      96.882 107.490 107.139  1.00  0.00    -0.220 NA
ATOM      3  C   UNL     1      97.724 106.855 106.248  1.00  0.00     0.084 A 
ATOM      4  C   UNL     1      97.405 107.389 108.324  1.00  0.00     0.189 A 
ATOM      5  C   UNL     1      98.861 106.291 106.790  1.00  0.00     0.097 A 
ENDROOT
BRANCH   4   6
ATOM      6  N   UNL     1      96.877 107.892 109.515  1.00  0.00    -0.300 N 
ATOM      7  C   UNL     1      97.610 108.356 110.604  1.00  0.00     0.246 C 
ATOM      8  O   UNL     1      98.829 108.412 110.724  1.00  0.00    -0.273 OA
ATOM      9  H   UNL     1      95.862 107.908 109.559  1.00  0.00     0.172 HD
BRANCH   7  10
ATOM     10  C   UNL     1      96.670 108.820 111.703  1.00  0.00     0.222 C 
BRANCH  10  11
ATOM     11  N   UNL     1      96.467 107.820 112.729  1.00  0.00    -0.338 N 
ATOM     12  C   UNL     1      97.250 107.653 113.850  1.00  0.00     0.048 A 
ATOM     13  C   UNL     1      95.455 106.898 112.719  1.00  0.00     0.087 A 
ATOM     14  C   UNL     1      96.710 106.586 114.572  1.00  0.00    -0.000 A 
ATOM     15  C   UNL     1      98.381 108.357 114.275  1.00  0.00     0.027 A 
ATOM     16  C   UNL     1      95.579 106.119 113.847  1.00  0.00     0.028 A 
ATOM     17  C   UNL     1      97.330 106.202 115.778  1.00  0.00     0.010 A 
ATOM     18  C   UNL     1      98.979 107.959 115.474  1.00  0.00     0.002 A 
ATOM     19  C   UNL     1      98.463 106.898 116.215  1.00  0.00     0.001 A 
ENDBRANCH  10  11
ENDBRANCH   7  10
ENDBRANCH   4   6
BRANCH   3  20
ATOM     20  C   UNL     1      97.425 106.792 104.846  1.00  0.00     0.001 A 
ATOM     21  C   UNL     1      98.448 106.581 103.921  1.00  0.00     0.010 A 
ATOM     22  C   UNL     1      96.108 106.941 104.406  1.00  0.00     0.010 A 
ATOM     23  C   UNL     1      98.157 106.519 102.559  1.00  0.00     0.004 A 
ATOM     24  C   UNL     1      95.817 106.878 103.043  1.00  0.00     0.004 A 
ATOM     25  C   UNL     1      96.841 106.668 102.120  1.00  0.00    -0.051 A 
ATOM     26  C   UNL     1      96.529 106.599 100.663  1.00  0.00     0.044 C 
ENDBRANCH   3  20
TORSDOF 4
ENDMDL
MODEL 3
REMARK VINA RESULT:      -7.8      1.546      9.430
REMARK SMILES Cc1ccc(-c2csc(NC(=O)Cn3ccc4ccccc43)n2)cc1
REMARK SMILES IDX 8 1 23 2 6 3 9 4 7 5 10 6 11 7 12 8 13 10 14 11 22 12 15 13
REMARK SMILES IDX 17 14 21 15 16 16 18 17 20 18 19 19 5 20 4 21 24 22 3 23
REMARK SMILES IDX 25 24 2 25 1 26
REMARK H PARENT 10 9
ROOT
ATOM      1  S   UNL     1      98.853 106.742 108.645  1.00  0.00    -0.105 S 
ATOM      2  N   UNL     1      96.737 107.383 107.305  1.00  0.00    -0.220 NA
ATOM      3  C   UNL     1      97.672 106.908 106.406  1.00  0.00     0.084 A 
ATOM      4  C   UNL     1      97.263 107.335 108.491  1.00  0.00     0.189 A 
ATOM      5  C   UNL     1      98.879 106.513 106.946  1.00  0.00     0.097 A 
ENDROOT
BRANCH   4   6
ATOM      6  N   UNL     1      96.657 107.720 109.690  1.00  0.00    -0.300 N 
ATOM      7  C   UNL     1      97.274 108.394 110.739  1.00  0.00     0.246 C 
ATOM      8  O   UNL     1      98.439 108.769 110.814  1.00  0.00    -0.273 OA
ATOM      9  H   UNL     1      95.674 107.472 109.770  1.00  0.00     0.172 HD
BRANCH   7  10
ATOM     10  C   UNL     1      96.278 108.631 111.861  1.00  0.00     0.222 C 
BRANCH  10  11
ATOM     11  N   UNL     1      96.829 108.358 113.171  1.00  0.00    -0.338 N 
ATOM     12  C   UNL     1      97.209 107.119 113.637  1.00  0.00     0.048 A 
ATOM     13  C   UNL     1      97.047 109.311 114.130  1.00  0.00     0.087 A 
ATOM     14  C   UNL     1      97.685 107.298 114.938  1.00  0.00    -0.000 A 
ATOM     15  C   UNL     1      97.169 105.868 113.013  1.00  0.00     0.027 A 
ATOM     16  C   UNL     1      97.576 108.685 115.236  1.00  0.00     0.028 A 
ATOM     17  C   UNL     1      98.144 106.174 115.652  1.00  0.00     0.010 A 
ATOM     18  C   UNL     1      97.629 104.767 113.741  1.00  0.00     0.002 A 
ATOM     19  C   UNL     1      98.109 104.916 115.040  1.00  0.00     0.001 A 
ENDBRANCH  10  11
ENDBRANCH   7  10
ENDBRANCH   4   6
BRANCH   3  20
ATOM     20  C   UNL     1      97.394 106.833 105.001  1.00  0.00     0.001 A 
ATOM     21  C   UNL     1      96.085 106.976 104.539  1.00  0.00     0.010 A 
ATOM     22  C   UNL     1      98.432 106.616 104.094  1.00  0.00     0.010 A 
ATOM     23  C   UNL     1      95.814 106.904 103.173  1.00  0.00     0.004 A 
ATOM     24  C   UNL     1      98.162 106.544 102.727  1.00  0.00     0.004 A 
ATOM     25  C   UNL     1      96.853 106.687 102.267  1.00  0.00    -0.051 A 
ATOM     26  C   UNL     1      96.563 106.613 100.806  1.00  0.00     0.044 C 
ENDBRANCH   3  20
TORSDOF 4
ENDMDL
MODEL 4
REMARK VINA RESULT:      -7.5      1.123      2.069
REMARK SMILES Cc1ccc(-c2csc(NC(=O)Cn3ccc4ccccc43)n2)cc1
REMARK SMILES IDX 8 1 23 2 6 3 9 4 7 5 10 6 11 7 12 8 13 10 14 11 22 12 15 13
REMARK SMILES IDX 17 14 21 15 16 16 18 17 20 18 19 19 5 20 4 21 24 22 3 23
REMARK SMILES IDX 25 24 2 25 1 26
REMARK H PARENT 10 9
ROOT
ATOM      1  S   UNL     1      95.890 109.037 109.395  1.00  0.00    -0.105 S 
ATOM      2  N   UNL     1      97.721 107.469 110.329  1.00  0.00    -0.220 NA
ATOM      3  C   UNL     1      96.974 107.921 111.398  1.00  0.00     0.084 A 
ATOM      4  C   UNL     1      97.232 107.997 109.248  1.00  0.00     0.189 A 
ATOM      5  C   UNL     1      95.938 108.778 111.089  1.00  0.00     0.097 A 
ENDROOT
BRANCH   4   6
ATOM      6  N   UNL     1      97.689 107.803 107.942  1.00  0.00    -0.300 N 
ATOM      7  C   UNL     1      98.607 106.840 107.530  1.00  0.00     0.246 C 
ATOM      8  O   UNL     1      99.177 105.999 108.217  1.00  0.00    -0.273 OA
ATOM      9  H   UNL     1      97.296 108.438 107.253  1.00  0.00     0.172 HD
BRANCH   7  10
ATOM     10  C   UNL     1      98.841 106.953 106.034  1.00  0.00     0.222 C 
BRANCH  10  11
ATOM     11  N   UNL     1      97.610 107.026 105.275  1.00  0.00    -0.338 N 
ATOM     12  C   UNL     1      97.495 106.826 103.917  1.00  0.00     0.048 A 
ATOM     13  C   UNL     1      96.385 107.306 105.817  1.00  0.00     0.087 A 
ATOM     14  C   UNL     1      96.146 106.986 103.592  1.00  0.00    -0.000 A 
ATOM     15  C   UNL     1      98.470 106.519 102.962  1.00  0.00     0.027 A 
ATOM     16  C   UNL     1      95.458 107.289 104.800  1.00  0.00     0.028 A 
ATOM     17  C   UNL     1      95.749 106.833 102.249  1.00  0.00     0.010 A 
ATOM     18  C   UNL     1      98.054 106.372 101.637  1.00  0.00     0.002 A 
ATOM     19  C   UNL     1      96.715 106.526 101.283  1.00  0.00     0.001 A 
ENDBRANCH  10  11
ENDBRANCH   7  10
ENDBRANCH   4   6
BRANCH   3  20
ATOM     20  C   UNL     1      97.265 107.516 112.743  1.00  0.00     0.001 A 
ATOM     21  C   UNL     1      97.842 108.420 113.636  1.00  0.00     0.010 A 
ATOM     22  C   UNL     1      96.972 106.216 113.160  1.00  0.00     0.010 A 
ATOM     23  C   UNL     1      98.125 108.026 114.944  1.00  0.00     0.004 A 
ATOM     24  C   UNL     1      97.255 105.822 114.468  1.00  0.00     0.004 A 
ATOM     25  C   UNL     1      97.832 106.727 115.359  1.00  0.00    -0.051 A 
ATOM     26  C   UNL     1      98.132 106.307 116.758  1.00  0.00     0.044 C 
ENDBRANCH   3  20
TORSDOF 4
ENDMDL
MODEL 5
REMARK VINA RESULT:      -7.4      1.868      9.801
REMARK SMILES Cc1ccc(-c2csc(NC(=O)Cn3ccc4ccccc43)n2)cc1
REMARK SMILES IDX 8 1 23 2 6 3 9 4 7 5 10 6 11 7 12 8 13 10 14 11 22 12 15 13
REMARK SMILES IDX 17 14 21 15 16 16 18 17 20 18 19 19 5 20 4 21 24 22 3 23
REMARK SMILES IDX 25 24 2 25 1 26
REMARK H PARENT 10 9
ROOT
ATOM      1  S   UNL     1      98.920 106.737 108.567  1.00  0.00    -0.105 S 
ATOM      2  N   UNL     1      96.833 107.438 107.212  1.00  0.00    -0.220 NA
ATOM      3  C   UNL     1      97.750 106.912 106.323  1.00  0.00     0.084 A 
ATOM      4  C   UNL     1      97.354 107.389 108.400  1.00  0.00     0.189 A 
ATOM      5  C   UNL     1      98.939 106.479 106.871  1.00  0.00     0.097 A 
ENDROOT
BRANCH   4   6
ATOM      6  N   UNL     1      96.762 107.817 109.591  1.00  0.00    -0.300 N 
ATOM      7  C   UNL     1      97.413 108.441 110.651  1.00  0.00     0.246 C 
ATOM      8  O   UNL     1      98.602 108.727 110.743  1.00  0.00    -0.273 OA
ATOM      9  H   UNL     1      95.762 107.644 109.657  1.00  0.00     0.172 HD
BRANCH   7  10
ATOM     10  C   UNL     1      96.422 108.751 111.759  1.00  0.00     0.222 C 
BRANCH  10  11
ATOM     11  N   UNL     1      96.682 108.007 112.972  1.00  0.00    -0.338 N 
ATOM     12  C   UNL     1      96.626 108.517 114.251  1.00  0.00     0.048 A 
ATOM     13  C   UNL     1      97.023 106.682 113.007  1.00  0.00     0.087 A 
ATOM     14  C   UNL     1      96.943 107.473 115.123  1.00  0.00    -0.000 A 
ATOM     15  C   UNL     1      96.322 109.807 114.697  1.00  0.00     0.027 A 
ATOM     16  C   UNL     1      97.192 106.322 114.325  1.00  0.00     0.028 A 
ATOM     17  C   UNL     1      96.957 107.728 116.509  1.00  0.00     0.010 A 
ATOM     18  C   UNL     1      96.342 110.037 116.075  1.00  0.00     0.002 A 
ATOM     19  C   UNL     1      96.655 109.015 116.969  1.00  0.00     0.001 A 
ENDBRANCH  10  11
ENDBRANCH   7  10
ENDBRANCH   4   6
BRANCH   3  20
ATOM     20  C   UNL     1      97.471 106.826 104.919  1.00  0.00     0.001 A 
ATOM     21  C   UNL     1      98.502 106.559 104.016  1.00  0.00     0.010 A 
ATOM     22  C   UNL     1      96.168 107.010 104.453  1.00  0.00     0.010 A 
ATOM     23  C   UNL     1      98.230 106.474 102.651  1.00  0.00     0.004 A 
ATOM     24  C   UNL     1      95.897 106.925 103.087  1.00  0.00     0.004 A 
ATOM     25  C   UNL     1      96.928 106.658 102.186  1.00  0.00    -0.051 A 
ATOM     26  C   UNL     1      96.638 106.565 100.726  1.00  0.00     0.044 C 
ENDBRANCH   3  20
TORSDOF 4
ENDMDL
MODEL 6
REMARK VINA RESULT:      -7.4      1.834      9.745
REMARK SMILES Cc1ccc(-c2csc(NC(=O)Cn3ccc4ccccc43)n2)cc1
REMARK SMILES IDX 8 1 23 2 6 3 9 4 7 5 10 6 11 7 12 8 13 10 14 11 22 12 15 13
REMARK SMILES IDX 17 14 21 15 16 16 18 17 20 18 19 19 5 20 4 21 24 22 3 23
REMARK SMILES IDX 25 24 2 25 1 26
REMARK H PARENT 10 9
ROOT
ATOM      1  S   UNL     1      95.485 109.356 108.690  1.00  0.00    -0.105 S 
ATOM      2  N   UNL     1      96.861 107.278 108.004  1.00  0.00    -0.220 NA
ATOM      3  C   UNL     1      96.511 107.948 106.848  1.00  0.00     0.084 A 
ATOM      4  C   UNL     1      96.370 107.936 109.010  1.00  0.00     0.189 A 
ATOM      5  C   UNL     1      95.766 109.096 107.019  1.00  0.00     0.097 A 
ENDROOT
BRANCH   4   6
ATOM      6  N   UNL     1      96.491 107.606 110.363  1.00  0.00    -0.300 N 
ATOM      7  C   UNL     1      97.474 108.066 111.234  1.00  0.00     0.246 C 
ATOM      8  O   UNL     1      98.401 108.831 110.988  1.00  0.00    -0.273 OA
ATOM      9  H   UNL     1      95.778 106.970 110.712  1.00  0.00     0.172 HD
BRANCH   7  10
ATOM     10  C   UNL     1      97.258 107.480 112.617  1.00  0.00     0.222 C 
BRANCH  10  11
ATOM     11  N   UNL     1      96.829 108.466 113.587  1.00  0.00    -0.338 N 
ATOM     12  C   UNL     1      97.463 108.746 114.777  1.00  0.00     0.048 A 
ATOM     13  C   UNL     1      95.723 109.259 113.443  1.00  0.00     0.087 A 
ATOM     14  C   UNL     1      96.728 109.753 115.406  1.00  0.00    -0.000 A 
ATOM     15  C   UNL     1      98.617 108.190 115.339  1.00  0.00     0.027 A 
ATOM     16  C   UNL     1      95.633 110.067 114.554  1.00  0.00     0.028 A 
ATOM     17  C   UNL     1      97.166 110.231 116.657  1.00  0.00     0.010 A 
ATOM     18  C   UNL     1      99.033 108.679 116.580  1.00  0.00     0.002 A 
ATOM     19  C   UNL     1      98.320 109.684 117.231  1.00  0.00     0.001 A 
ENDBRANCH  10  11
ENDBRANCH   7  10
ENDBRANCH   4   6
BRANCH   3  20
ATOM     20  C   UNL     1      96.906 107.470 105.554  1.00  0.00     0.001 A 
ATOM     21  C   UNL     1      95.965 107.373 104.528  1.00  0.00     0.010 A 
ATOM     22  C   UNL     1      98.231 107.100 105.320  1.00  0.00     0.010 A 
ATOM     23  C   UNL     1      96.348 106.908 103.270  1.00  0.00     0.004 A 
ATOM     24  C   UNL     1      98.615 106.635 104.063  1.00  0.00     0.004 A 
ATOM     25  C   UNL     1      97.674 106.539 103.037  1.00  0.00    -0.051 A 
ATOM     26  C   UNL     1      98.084 106.044 101.692  1.00  0.00     0.044 C 
ENDBRANCH   3  20
TORSDOF 4
ENDMDL
MODEL 7
REMARK VINA RESULT:      -7.3     12.584     15.761
REMARK SMILES Cc1ccc(-c2csc(NC(=O)Cn3ccc4ccccc43)n2)cc1
REMARK SMILES IDX 8 1 23 2 6 3 9 4 7 5 10 6 11 7 12 8 13 10 14 11 22 12 15 13
REMARK SMILES IDX 17 14 21 15 16 16 18 17 20 18 19 19 5 20 4 21 24 22 3 23
REMARK SMILES IDX 25 24 2 25 1 26
REMARK H PARENT 10 9
ROOT
ATOM      1  S   UNL     1      98.242  95.319 108.602  1.00  0.00    -0.105 S 
ATOM      2  N   UNL     1     100.606  94.503 107.946  1.00  0.00    -0.220 NA
ATOM      3  C   UNL     1      99.803  94.402 106.827  1.00  0.00     0.084 A 
ATOM      4  C   UNL     1      99.880  94.970 108.917  1.00  0.00     0.189 A 
ATOM      5  C   UNL     1      98.492  94.798 106.988  1.00  0.00     0.097 A 
ENDROOT
BRANCH   4   6
ATOM      6  N   UNL     1     100.299  95.228 110.224  1.00  0.00    -0.300 N 
ATOM      7  C   UNL     1     100.826  94.297 111.115  1.00  0.00     0.246 C 
ATOM      8  O   UNL     1     101.018  93.100 110.928  1.00  0.00    -0.273 OA
ATOM      9  H   UNL     1     100.198  96.195 110.522  1.00  0.00     0.172 HD
BRANCH   7  10
ATOM     10  C   UNL     1     101.161  94.971 112.433  1.00  0.00     0.222 C 
BRANCH  10  11
ATOM     11  N   UNL     1     102.374  95.759 112.371  1.00  0.00    -0.338 N 
ATOM     12  C   UNL     1     103.653  95.254 112.296  1.00  0.00     0.048 A 
ATOM     13  C   UNL     1     102.407  97.127 112.379  1.00  0.00     0.087 A 
ATOM     14  C   UNL     1     104.524  96.345 112.255  1.00  0.00    -0.000 A 
ATOM     15  C   UNL     1     104.101  93.929 112.262  1.00  0.00     0.027 A 
ATOM     16  C   UNL     1     103.724  97.520 112.308  1.00  0.00     0.028 A 
ATOM     17  C   UNL     1     105.909  96.104 112.175  1.00  0.00     0.010 A 
ATOM     18  C   UNL     1     105.480  93.714 112.184  1.00  0.00     0.002 A 
ATOM     19  C   UNL     1     106.372  94.783 112.141  1.00  0.00     0.001 A 
ENDBRANCH  10  11
ENDBRANCH   7  10
ENDBRANCH   4   6
BRANCH   3  20
ATOM     20  C   UNL     1     100.314  93.914 105.579  1.00  0.00     0.001 A 
ATOM     21  C   UNL     1     101.660  93.561 105.464  1.00  0.00     0.010 A 
ATOM     22  C   UNL     1      99.467  93.793 104.476  1.00  0.00     0.010 A 
ATOM     23  C   UNL     1     102.157  93.086 104.250  1.00  0.00     0.004 A 
ATOM     24  C   UNL     1      99.963  93.318 103.262  1.00  0.00     0.004 A 
ATOM     25  C   UNL     1     101.308  92.965 103.149  1.00  0.00    -0.051 A 
ATOM     26  C   UNL     1     101.839  92.455 101.852  1.00  0.00     0.044 C 
ENDBRANCH   3  20
TORSDOF 4
ENDMDL
MODEL 8
REMARK VINA RESULT:      -7.3     13.070     16.063
REMARK SMILES Cc1ccc(-c2csc(NC(=O)Cn3ccc4ccccc43)n2)cc1
REMARK SMILES IDX 8 1 23 2 6 3 9 4 7 5 10 6 11 7 12 8 13 10 14 11 22 12 15 13
REMARK SMILES IDX 17 14 21 15 16 16 18 17 20 18 19 19 5 20 4 21 24 22 3 23
REMARK SMILES IDX 25 24 2 25 1 26
REMARK H PARENT 10 9
ROOT
ATOM      1  S   UNL     1      98.331  93.779 108.755  1.00  0.00    -0.105 S 
ATOM      2  N   UNL     1     100.750  93.519 107.881  1.00  0.00    -0.220 NA
ATOM      3  C   UNL     1      99.900  93.385 106.802  1.00  0.00     0.084 A 
ATOM      4  C   UNL     1     100.025  93.725 108.939  1.00  0.00     0.189 A 
ATOM      5  C   UNL     1      98.553  93.497 107.078  1.00  0.00     0.097 A 
ENDROOT
BRANCH   4   6
ATOM      6  N   UNL     1     100.485  93.916 110.244  1.00  0.00    -0.300 N 
ATOM      7  C   UNL     1     100.704  95.143 110.864  1.00  0.00     0.246 C 
ATOM      8  O   UNL     1     100.540  96.265 110.395  1.00  0.00    -0.273 OA
ATOM      9  H   UNL     1     100.665  93.060 110.762  1.00  0.00     0.172 HD
BRANCH   7  10
ATOM     10  C   UNL     1     101.201  94.926 112.282  1.00  0.00     0.222 C 
BRANCH  10  11
ATOM     11  N   UNL     1     102.628  94.691 112.349  1.00  0.00    -0.338 N 
ATOM     12  C   UNL     1     103.601  95.666 112.349  1.00  0.00     0.048 A 
ATOM     13  C   UNL     1     103.202  93.450 112.421  1.00  0.00     0.087 A 
ATOM     14  C   UNL     1     104.834  95.014 112.426  1.00  0.00    -0.000 A 
ATOM     15  C   UNL     1     103.485  97.058 112.289  1.00  0.00     0.027 A 
ATOM     16  C   UNL     1     104.567  93.617 112.470  1.00  0.00     0.028 A 
ATOM     17  C   UNL     1     106.010  95.790 112.443  1.00  0.00     0.010 A 
ATOM     18  C   UNL     1     104.665  97.807 112.307  1.00  0.00     0.002 A 
ATOM     19  C   UNL     1     105.909  97.185 112.383  1.00  0.00     0.001 A 
ENDBRANCH  10  11
ENDBRANCH   7  10
ENDBRANCH   4   6
BRANCH   3  20
ATOM     20  C   UNL     1     100.398  93.146 105.478  1.00  0.00     0.001 A 
ATOM     21  C   UNL     1      99.523  92.765 104.460  1.00  0.00     0.010 A 
ATOM     22  C   UNL     1     101.760  93.295 105.207  1.00  0.00     0.010 A 
ATOM     23  C   UNL     1     100.008  92.533 103.173  1.00  0.00     0.004 A 
ATOM     24  C   UNL     1     102.244  93.063 103.920  1.00  0.00     0.004 A 
ATOM     25  C   UNL     1     101.369  92.681 102.903  1.00  0.00    -0.051 A 
ATOM     26  C   UNL     1     101.886  92.436 101.526  1.00  0.00     0.044 C 
ENDBRANCH   3  20
TORSDOF 4
ENDMDL
MODEL 9
REMARK VINA RESULT:      -7.2     12.106     15.139
REMARK SMILES Cc1ccc(-c2csc(NC(=O)Cn3ccc4ccccc43)n2)cc1
REMARK SMILES IDX 8 1 23 2 6 3 9 4 7 5 10 6 11 7 12 8 13 10 14 11 22 12 15 13
REMARK SMILES IDX 17 14 21 15 16 16 18 17 20 18 19 19 5 20 4 21 24 22 3 23
REMARK SMILES IDX 25 24 2 25 1 26
REMARK H PARENT 10 9
ROOT
ATOM      1  S   UNL     1      99.487  96.054 112.778  1.00  0.00    -0.105 S 
ATOM      2  N   UNL     1     100.693  95.739 110.513  1.00  0.00    -0.220 NA
ATOM      3  C   UNL     1      99.334  95.671 110.275  1.00  0.00     0.084 A 
ATOM      4  C   UNL     1     100.867  95.935 111.785  1.00  0.00     0.189 A 
ATOM      5  C   UNL     1      98.521  95.821 111.380  1.00  0.00     0.097 A 
ENDROOT
BRANCH   4   6
ATOM      6  N   UNL     1     102.088  96.066 112.451  1.00  0.00    -0.300 N 
ATOM      7  C   UNL     1     103.002  97.101 112.288  1.00  0.00     0.246 C 
ATOM      8  O   UNL     1     102.916  98.075 111.547  1.00  0.00    -0.273 OA
ATOM      9  H   UNL     1     102.297  95.319 113.109  1.00  0.00     0.172 HD
BRANCH   7  10
ATOM     10  C   UNL     1     104.203  96.881 113.192  1.00  0.00     0.222 C 
BRANCH  10  11
ATOM     11  N   UNL     1     105.237  96.082 112.569  1.00  0.00    -0.338 N 
ATOM     12  C   UNL     1     106.039  95.167 113.215  1.00  0.00     0.048 A 
ATOM     13  C   UNL     1     105.556  96.134 111.239  1.00  0.00     0.087 A 
ATOM     14  C   UNL     1     106.895  94.622 112.256  1.00  0.00    -0.000 A 
ATOM     15  C   UNL     1     106.071  94.785 114.560  1.00  0.00     0.027 A 
ATOM     16  C   UNL     1     106.579  95.241 111.014  1.00  0.00     0.028 A 
ATOM     17  C   UNL     1     107.829  93.647 112.657  1.00  0.00     0.010 A 
ATOM     18  C   UNL     1     107.006  93.816 114.936  1.00  0.00     0.002 A 
ATOM     19  C   UNL     1     107.873  93.255 114.000  1.00  0.00     0.001 A 
ENDBRANCH  10  11
ENDBRANCH   7  10
ENDBRANCH   4   6
BRANCH   3  20
ATOM     20  C   UNL     1      98.812  95.460 108.956  1.00  0.00     0.001 A 
ATOM     21  C   UNL     1      99.677  95.406 107.862  1.00  0.00     0.010 A 
ATOM     22  C   UNL     1      97.437  95.307 108.765  1.00  0.00     0.010 A 
ATOM     23  C   UNL     1      99.169  95.200 106.580  1.00  0.00     0.004 A 
ATOM     24  C   UNL     1      96.929  95.101 107.482  1.00  0.00     0.004 A 
ATOM     25  C   UNL     1      97.795  95.048 106.389  1.00  0.00    -0.051 A 
ATOM     26  C   UNL     1      97.253  94.825 105.018  1.00  0.00     0.044 C 
ENDBRANCH   3  20
TORSDOF 4
ENDMDL
MODEL 10
REMARK VINA RESULT:      -7.1     12.223     15.518
REMARK SMILES Cc1ccc(-c2csc(NC(=O)Cn3ccc4ccccc43)n2)cc1
REMARK SMILES IDX 8 1 23 2 6 3 9 4 7 5 10 6 11 7 12 8 13 10 14 11 22 12 15 13
REMARK SMILES IDX 17 14 21 15 16 16 18 17 20 18 19 19 5 20 4 21 24 22 3 23
REMARK SMILES IDX 25 24 2 25 1 26
REMARK H PARENT 10 9
ROOT
ATOM      1  S   UNL     1      99.361  95.920 112.180  1.00  0.00    -0.105 S 
ATOM      2  N   UNL     1     100.394  96.004 109.811  1.00  0.00    -0.220 NA
ATOM      3  C   UNL     1      99.072  95.626 109.677  1.00  0.00     0.084 A 
ATOM      4  C   UNL     1     100.633  96.177 111.076  1.00  0.00     0.189 A 
ATOM      5  C   UNL     1      98.352  95.527 110.850  1.00  0.00     0.097 A 
ENDROOT
BRANCH   4   6
ATOM      6  N   UNL     1     101.846  96.564 111.651  1.00  0.00    -0.300 N 
ATOM      7  C   UNL     1     102.801  95.713 112.199  1.00  0.00     0.246 C 
ATOM      8  O   UNL     1     102.763  94.490 112.280  1.00  0.00    -0.273 OA
ATOM      9  H   UNL     1     102.017  97.567 111.653  1.00  0.00     0.172 HD
BRANCH   7  10
ATOM     10  C   UNL     1     103.978  96.519 112.719  1.00  0.00     0.222 C 
BRANCH  10  11
ATOM     11  N   UNL     1     104.753  95.807 113.713  1.00  0.00    -0.338 N 
ATOM     12  C   UNL     1     105.838  95.000 113.454  1.00  0.00     0.048 A 
ATOM     13  C   UNL     1     104.503  95.846 115.059  1.00  0.00     0.087 A 
ATOM     14  C   UNL     1     106.289  94.512 114.683  1.00  0.00    -0.000 A 
ATOM     15  C   UNL     1     106.449  94.668 112.240  1.00  0.00     0.027 A 
ATOM     16  C   UNL     1     105.437  95.053 115.686  1.00  0.00     0.028 A 
ATOM     17  C   UNL     1     107.404  93.651 114.702  1.00  0.00     0.010 A 
ATOM     18  C   UNL     1     107.552  93.812 112.284  1.00  0.00     0.002 A 
ATOM     19  C   UNL     1     108.024  93.310 113.495  1.00  0.00     0.001 A 
ENDBRANCH  10  11
ENDBRANCH   7  10
ENDBRANCH   4   6
BRANCH   3  20
ATOM     20  C   UNL     1      98.495  95.357 108.392  1.00  0.00     0.001 A 
ATOM     21  C   UNL     1      97.118  95.161 108.271  1.00  0.00     0.010 A 
ATOM     22  C   UNL     1      99.309  95.289 107.260  1.00  0.00     0.010 A 
ATOM     23  C   UNL     1      96.556  94.900 107.022  1.00  0.00     0.004 A 
ATOM     24  C   UNL     1      98.747  95.028 106.011  1.00  0.00     0.004 A 
ATOM     25  C   UNL     1      97.371  94.833 105.891  1.00  0.00    -0.051 A 
ATOM     26  C   UNL     1      96.770  94.556 104.555  1.00  0.00     0.044 C 
ENDBRANCH   3  20
TORSDOF 4
ENDMDL
MODEL 11
REMARK VINA RESULT:      -6.9     12.024     15.272
REMARK SMILES Cc1ccc(-c2csc(NC(=O)Cn3ccc4ccccc43)n2)cc1
REMARK SMILES IDX 8 1 23 2 6 3 9 4 7 5 10 6 11 7 12 8 13 10 14 11 22 12 15 13
REMARK SMILES IDX 17 14 21 15 16 16 18 17 20 18 19 19 5 20 4 21 24 22 3 23
REMARK SMILES IDX 25 24 2 25 1 26
REMARK H PARENT 10 9
ROOT
ATOM      1  S   UNL     1     101.269  93.841 111.912  1.00  0.00    -0.105 S 
ATOM      2  N   UNL     1     100.741  96.053 110.683  1.00  0.00    -0.220 NA
ATOM      3  C   UNL     1      99.751  95.148 110.356  1.00  0.00     0.084 A 
ATOM      4  C   UNL     1     101.574  95.462 111.486  1.00  0.00     0.189 A 
ATOM      5  C   UNL     1      99.867  93.897 110.926  1.00  0.00     0.097 A 
ENDROOT
BRANCH   4   6
ATOM      6  N   UNL     1     102.720  96.019 112.059  1.00  0.00    -0.300 N 
ATOM      7  C   UNL     1     102.765  96.789 113.217  1.00  0.00     0.246 C 
ATOM      8  O   UNL     1     101.831  97.119 113.940  1.00  0.00    -0.273 OA
ATOM      9  H   UNL     1     103.584  95.824 111.560  1.00  0.00     0.172 HD
BRANCH   7  10
ATOM     10  C   UNL     1     104.197  97.203 113.510  1.00  0.00     0.222 C 
BRANCH  10  11
ATOM     11  N   UNL     1     104.942  96.188 114.225  1.00  0.00    -0.338 N 
ATOM     12  C   UNL     1     105.866  95.333 113.667  1.00  0.00     0.048 A 
ATOM     13  C   UNL     1     104.821  95.945 115.566  1.00  0.00     0.087 A 
ATOM     14  C   UNL     1     106.347  94.520 114.697  1.00  0.00    -0.000 A 
ATOM     15  C   UNL     1     106.309  95.217 112.346  1.00  0.00     0.027 A 
ATOM     16  C   UNL     1     105.679  94.917 115.889  1.00  0.00     0.028 A 
ATOM     17  C   UNL     1     107.317  93.545 114.394  1.00  0.00     0.010 A 
ATOM     18  C   UNL     1     107.272  94.243 112.069  1.00  0.00     0.002 A 
ATOM     19  C   UNL     1     107.769  93.418 113.076  1.00  0.00     0.001 A 
ENDBRANCH  10  11
ENDBRANCH   7  10
ENDBRANCH   4   6
BRANCH   3  20
ATOM     20  C   UNL     1      98.673  95.499 109.477  1.00  0.00     0.001 A 
ATOM     21  C   UNL     1      97.517  96.089 109.990  1.00  0.00     0.010 A 
ATOM     22  C   UNL     1      98.778  95.250 108.108  1.00  0.00     0.010 A 
ATOM     23  C   UNL     1      96.469  96.430 109.136  1.00  0.00     0.004 A 
ATOM     24  C   UNL     1      97.730  95.591 107.254  1.00  0.00     0.004 A 
ATOM     25  C   UNL     1      96.575  96.181 107.767  1.00  0.00    -0.051 A 
ATOM     26  C   UNL     1      95.455  96.549 106.854  1.00  0.00     0.044 C 
ENDBRANCH   3  20
TORSDOF 4
ENDMDL
MODEL 12
REMARK VINA RESULT:      -6.9     12.900     14.150
REMARK SMILES Cc1ccc(-c2csc(NC(=O)Cn3ccc4ccccc43)n2)cc1
REMARK SMILES IDX 8 1 23 2 6 3 9 4 7 5 10 6 11 7 12 8 13 10 14 11 22 12 15 13
REMARK SMILES IDX 17 14 21 15 16 16 18 17 20 18 19 19 5 20 4 21 24 22 3 23
REMARK SMILES IDX 25 24 2 25 1 26
REMARK H PARENT 10 9
ROOT
ATOM      1  S   UNL     1     101.154  95.572 113.302  1.00  0.00    -0.105 S 
ATOM      2  N   UNL     1     102.626  93.954 111.925  1.00  0.00    -0.220 NA
ATOM      3  C   UNL     1     103.418  94.496 112.917  1.00  0.00     0.084 A 
ATOM      4  C   UNL     1     101.434  94.455 112.046  1.00  0.00     0.189 A 
ATOM      5  C   UNL     1     102.797  95.393 113.762  1.00  0.00     0.097 A 
ENDROOT
BRANCH   4   6
ATOM      6  N   UNL     1     100.324  94.174 111.246  1.00  0.00    -0.300 N 
ATOM      7  C   UNL     1      99.796  95.000 110.259  1.00  0.00     0.246 C 
ATOM      8  O   UNL     1     100.194  96.107 109.909  1.00  0.00    -0.273 OA
ATOM      9  H   UNL     1      99.885  93.274 111.426  1.00  0.00     0.172 HD
BRANCH   7  10
ATOM     10  C   UNL     1      98.592  94.336 109.615  1.00  0.00     0.222 C 
BRANCH  10  11
ATOM     11  N   UNL     1      98.460  94.651 108.208  1.00  0.00    -0.338 N 
ATOM     12  C   UNL     1      99.294  94.207 107.207  1.00  0.00     0.048 A 
ATOM     13  C   UNL     1      97.474  95.443 107.685  1.00  0.00     0.087 A 
ATOM     14  C   UNL     1      98.815  94.739 106.007  1.00  0.00    -0.000 A 
ATOM     15  C   UNL     1     100.424  93.385 107.270  1.00  0.00     0.027 A 
ATOM     16  C   UNL     1      97.667  95.517 106.324  1.00  0.00     0.028 A 
ATOM     17  C   UNL     1      99.496  94.436 104.812  1.00  0.00     0.010 A 
ATOM     18  C   UNL     1     101.083  93.097 106.072  1.00  0.00     0.002 A 
ATOM     19  C   UNL     1     100.628  93.614 104.860  1.00  0.00     0.001 A 
ENDBRANCH  10  11
ENDBRANCH   7  10
ENDBRANCH   4   6
BRANCH   3  20
ATOM     20  C   UNL     1     104.802  94.141 113.053  1.00  0.00     0.001 A 
ATOM     21  C   UNL     1     105.571  93.882 111.917  1.00  0.00     0.010 A 
ATOM     22  C   UNL     1     105.380  94.053 114.320  1.00  0.00     0.010 A 
ATOM     23  C   UNL     1     106.916  93.536 112.049  1.00  0.00     0.004 A 
ATOM     24  C   UNL     1     106.725  93.708 114.452  1.00  0.00     0.004 A 
ATOM     25  C   UNL     1     107.493  93.449 113.316  1.00  0.00    -0.051 A 
ATOM     26  C   UNL     1     108.931  93.082 113.456  1.00  0.00     0.044 C 
ENDBRANCH   3  20
TORSDOF 4
ENDMDL
MODEL 13
REMARK VINA RESULT:      -6.9     12.129     15.140
REMARK SMILES Cc1ccc(-c2csc(NC(=O)Cn3ccc4ccccc43)n2)cc1
REMARK SMILES IDX 8 1 23 2 6 3 9 4 7 5 10 6 11 7 12 8 13 10 14 11 22 12 15 13
REMARK SMILES IDX 17 14 21 15 16 16 18 17 20 18 19 19 5 20 4 21 24 22 3 23
REMARK SMILES IDX 25 24 2 25 1 26
REMARK H PARENT 10 9
ROOT
ATOM      1  S   UNL     1      99.996  96.634 114.114  1.00  0.00    -0.105 S 
ATOM      2  N   UNL     1     101.057  96.206 111.796  1.00  0.00    -0.220 NA
ATOM      3  C   UNL     1      99.686  96.160 111.642  1.00  0.00     0.084 A 
ATOM      4  C   UNL     1     101.311  96.446 113.046  1.00  0.00     0.189 A 
ATOM      5  C   UNL     1      98.944  96.370 112.786  1.00  0.00     0.097 A 
ENDROOT
BRANCH   4   6
ATOM      6  N   UNL     1     102.572  96.574 113.633  1.00  0.00    -0.300 N 
ATOM      7  C   UNL     1     103.153  95.682 114.530  1.00  0.00     0.246 C 
ATOM      8  O   UNL     1     102.681  94.638 114.967  1.00  0.00    -0.273 OA
ATOM      9  H   UNL     1     103.089  97.406 113.359  1.00  0.00     0.172 HD
BRANCH   7  10
ATOM     10  C   UNL     1     104.531  96.176 114.935  1.00  0.00     0.222 C 
BRANCH  10  11
ATOM     11  N   UNL     1     105.583  95.233 114.618  1.00  0.00    -0.338 N 
ATOM     12  C   UNL     1     106.045  94.947 113.353  1.00  0.00     0.048 A 
ATOM     13  C   UNL     1     106.263  94.495 115.548  1.00  0.00     0.087 A 
ATOM     14  C   UNL     1     107.056  93.992 113.492  1.00  0.00    -0.000 A 
ATOM     15  C   UNL     1     105.652  95.454 112.110  1.00  0.00     0.027 A 
ATOM     16  C   UNL     1     107.182  93.716 114.882  1.00  0.00     0.028 A 
ATOM     17  C   UNL     1     107.706  93.520 112.335  1.00  0.00     0.010 A 
ATOM     18  C   UNL     1     106.310  94.970 110.976  1.00  0.00     0.002 A 
ATOM     19  C   UNL     1     107.321  94.018 111.084  1.00  0.00     0.001 A 
ENDBRANCH  10  11
ENDBRANCH   7  10
ENDBRANCH   4   6
BRANCH   3  20
ATOM     20  C   UNL     1      99.081  95.911 110.365  1.00  0.00     0.001 A 
ATOM     21  C   UNL     1      99.857  95.444 109.303  1.00  0.00     0.010 A 
ATOM     22  C   UNL     1      97.715  96.135 110.183  1.00  0.00     0.010 A 
ATOM     23  C   UNL     1      99.269  95.201 108.062  1.00  0.00     0.004 A 
ATOM     24  C   UNL     1      97.127  95.893 108.942  1.00  0.00     0.004 A 
ATOM     25  C   UNL     1      97.904  95.426 107.881  1.00  0.00    -0.051 A 
ATOM     26  C   UNL     1      97.275  95.164 106.555  1.00  0.00     0.044 C 
ENDBRANCH   3  20
TORSDOF 4
ENDMDL
MODEL 14
REMARK VINA RESULT:      -6.8     12.635     15.686
REMARK SMILES Cc1ccc(-c2csc(NC(=O)Cn3ccc4ccccc43)n2)cc1
REMARK SMILES IDX 8 1 23 2 6 3 9 4 7 5 10 6 11 7 12 8 13 10 14 11 22 12 15 13
REMARK SMILES IDX 17 14 21 15 16 16 18 17 20 18 19 19 5 20 4 21 24 22 3 23
REMARK SMILES IDX 25 24 2 25 1 26
REMARK H PARENT 10 9
ROOT
ATOM      1  S   UNL     1      98.628  95.663 110.687  1.00  0.00    -0.105 S 
ATOM      2  N   UNL     1     100.556  94.589 109.341  1.00  0.00    -0.220 NA
ATOM      3  C   UNL     1      99.509  94.808 108.468  1.00  0.00     0.084 A 
ATOM      4  C   UNL     1     100.189  95.001 110.517  1.00  0.00     0.189 A 
ATOM      5  C   UNL     1      98.380  95.384 109.014  1.00  0.00     0.097 A 
ENDROOT
BRANCH   4   6
ATOM      6  N   UNL     1     100.948  94.965 111.689  1.00  0.00    -0.300 N 
ATOM      7  C   UNL     1     101.742  95.996 112.182  1.00  0.00     0.246 C 
ATOM      8  O   UNL     1     101.925  97.106 111.694  1.00  0.00    -0.273 OA
ATOM      9  H   UNL     1     100.892  94.092 112.208  1.00  0.00     0.172 HD
BRANCH   7  10
ATOM     10  C   UNL     1     102.403  95.567 113.481  1.00  0.00     0.222 C 
BRANCH  10  11
ATOM     11  N   UNL     1     103.339  94.478 113.303  1.00  0.00    -0.338 N 
ATOM     12  C   UNL     1     104.534  94.553 112.621  1.00  0.00     0.048 A 
ATOM     13  C   UNL     1     103.157  93.215 113.799  1.00  0.00     0.087 A 
ATOM     14  C   UNL     1     105.125  93.289 112.689  1.00  0.00    -0.000 A 
ATOM     15  C   UNL     1     105.128  95.630 111.955  1.00  0.00     0.027 A 
ATOM     16  C   UNL     1     104.246  92.456 113.435  1.00  0.00     0.028 A 
ATOM     17  C   UNL     1     106.372  93.090 112.064  1.00  0.00     0.010 A 
ATOM     18  C   UNL     1     106.365  95.409 111.342  1.00  0.00     0.002 A 
ATOM     19  C   UNL     1     106.978  94.159 111.394  1.00  0.00     0.001 A 
ENDBRANCH  10  11
ENDBRANCH   7  10
ENDBRANCH   4   6
BRANCH   3  20
ATOM     20  C   UNL     1      99.602  94.457 107.081  1.00  0.00     0.001 A 
ATOM     21  C   UNL     1     100.639  93.636 106.635  1.00  0.00     0.010 A 
ATOM     22  C   UNL     1      98.655  94.936 106.173  1.00  0.00     0.010 A 
ATOM     23  C   UNL     1     100.730  93.295 105.286  1.00  0.00     0.004 A 
ATOM     24  C   UNL     1      98.746  94.595 104.824  1.00  0.00     0.004 A 
ATOM     25  C   UNL     1      99.783  93.774 104.380  1.00  0.00    -0.051 A 
ATOM     26  C   UNL     1      99.878  93.407 102.938  1.00  0.00     0.044 C 
ENDBRANCH   3  20
TORSDOF 4
ENDMDL
MODEL 15
REMARK VINA RESULT:      -6.7     13.271     14.461
REMARK SMILES Cc1ccc(-c2csc(NC(=O)Cn3ccc4ccccc43)n2)cc1
REMARK SMILES IDX 8 1 23 2 6 3 9 4 7 5 10 6 11 7 12 8 13 10 14 11 22 12 15 13
REMARK SMILES IDX 17 14 21 15 16 16 18 17 20 18 19 19 5 20 4 21 24 22 3 23
REMARK SMILES IDX 25 24 2 25 1 26
REMARK H PARENT 10 9
ROOT
ATOM      1  S   UNL     1     101.057  96.125 113.052  1.00  0.00    -0.105 S 
ATOM      2  N   UNL     1     102.628  94.747 111.531  1.00  0.00    -0.220 NA
ATOM      3  C   UNL     1     103.308  95.009 112.704  1.00  0.00     0.084 A 
ATOM      4  C   UNL     1     101.451  95.288 111.621  1.00  0.00     0.189 A 
ATOM      5  C   UNL     1     102.619  95.742 113.648  1.00  0.00     0.097 A 
ENDROOT
BRANCH   4   6
ATOM      6  N   UNL     1     100.442  95.260 110.655  1.00  0.00    -0.300 N 
ATOM      7  C   UNL     1      99.917  94.121 110.052  1.00  0.00     0.246 C 
ATOM      8  O   UNL     1     100.232  92.951 110.246  1.00  0.00    -0.273 OA
ATOM      9  H   UNL     1     100.078  96.172 110.392  1.00  0.00     0.172 HD
BRANCH   7  10
ATOM     10  C   UNL     1      98.837  94.511 109.058  1.00  0.00     0.222 C 
BRANCH  10  11
ATOM     11  N   UNL     1      98.705  93.565 107.971  1.00  0.00    -0.338 N 
ATOM     12  C   UNL     1      99.563  93.454 106.898  1.00  0.00     0.048 A 
ATOM     13  C   UNL     1      97.696  92.646 107.866  1.00  0.00     0.087 A 
ATOM     14  C   UNL     1      99.075  92.425 106.088  1.00  0.00    -0.000 A 
ATOM     15  C   UNL     1     100.719  94.176 106.587  1.00  0.00     0.027 A 
ATOM     16  C   UNL     1      97.898  91.925 106.710  1.00  0.00     0.028 A 
ATOM     17  C   UNL     1      99.776  92.101 104.910  1.00  0.00     0.010 A 
ATOM     18  C   UNL     1     101.397  93.838 105.413  1.00  0.00     0.002 A 
ATOM     19  C   UNL     1     100.935  92.817 104.586  1.00  0.00     0.001 A 
ENDBRANCH  10  11
ENDBRANCH   7  10
ENDBRANCH   4   6
BRANCH   3  20
ATOM     20  C   UNL     1     104.647  94.542 112.916  1.00  0.00     0.001 A 
ATOM     21  C   UNL     1     105.434  94.156 111.830  1.00  0.00     0.010 A 
ATOM     22  C   UNL     1     105.166  94.472 114.211  1.00  0.00     0.010 A 
ATOM     23  C   UNL     1     106.737  93.702 112.037  1.00  0.00     0.004 A 
ATOM     24  C   UNL     1     106.468  94.018 114.418  1.00  0.00     0.004 A 
ATOM     25  C   UNL     1     107.254  93.632 113.331  1.00  0.00    -0.051 A 
ATOM     26  C   UNL     1     108.647  93.149 113.551  1.00  0.00     0.044 C 
ENDBRANCH   3  20
TORSDOF 4
ENDMDL
