MODEL 1
REMARK VINA RESULT:      -8.5      0.000      0.000
REMARK SMILES CN1C(=O)[C@]2(C(C#N)=C(N)Oc3n[nH]c(-c4ccccc4)c32)c2ccccc21
REMARK SMILES IDX 11 1 4 2 2 3 14 4 13 5 8 6 5 7 23 8 22 9 3 10 28 11 6 12
REMARK SMILES IDX 15 13 12 14 24 15 9 16 27 17 1 18 25 19 26 20 7 21 10 23
REMARK SMILES IDX 16 26 17 27 21 28 18 29 20 30 19 31
REMARK H PARENT 14 22 10 24 10 25
ROOT
ATOM      1  O   UNL     1     107.759  93.477 115.253  1.00  0.00    -0.420 OA
ATOM      2  O   UNL     1     106.402  97.071 113.362  1.00  0.00    -0.273 OA
ATOM      3  N   UNL     1     104.318  96.349 112.518  1.00  0.00    -0.314 N 
ATOM      4  N   UNL     1     105.357  94.704 117.283  1.00  0.00    -0.274 N 
ATOM      5  N   UNL     1     106.529  94.052 117.138  1.00  0.00    -0.136 NA
ATOM      6  N   UNL     1     107.213  94.053 110.480  1.00  0.00    -0.193 NA
ATOM      7  C   UNL     1     105.654  94.737 113.629  1.00  0.00     0.149 C 
ATOM      8  C   UNL     1     104.353  94.148 113.143  1.00  0.00     0.001 A 
ATOM      9  C   UNL     1     105.635  94.656 115.110  1.00  0.00     0.067 A 
ATOM     10  C   UNL     1     105.555  96.211 113.171  1.00  0.00     0.247 C 
ATOM     11  C   UNL     1     103.609  95.139 112.496  1.00  0.00     0.048 A 
ATOM     12  C   UNL     1     106.910  94.075 113.056  1.00  0.00     0.114 C 
ATOM     13  C   UNL     1     104.785  95.094 116.099  1.00  0.00     0.074 A 
ATOM     14  C   UNL     1     106.675  94.041 115.815  1.00  0.00     0.245 A 
ATOM     15  C   UNL     1     103.868  92.852 113.240  1.00  0.00     0.008 A 
ATOM     16  C   UNL     1     107.863  93.506 113.849  1.00  0.00     0.208 C 
ATOM     17  C   UNL     1     102.367  94.875 111.943  1.00  0.00     0.027 A 
ATOM     18  C   UNL     1     103.839  97.582 111.941  1.00  0.00     0.153 C 
ATOM     19  C   UNL     1     102.617  92.569 112.687  1.00  0.00     0.001 A 
ATOM     20  C   UNL     1     101.873  93.573 112.045  1.00  0.00     0.002 A 
ATOM     21  C   UNL     1     107.077  94.063 111.632  1.00  0.00     0.102 C 
ATOM     22  H   UNL     1     105.008  94.854 118.221  1.00  0.00     0.190 HD
ENDROOT
BRANCH  16  23
ATOM     23  N   UNL     1     109.003  92.905 113.383  1.00  0.00    -0.369 N 
ATOM     24  H   UNL     1     109.850  92.975 113.933  1.00  0.00     0.159 HD
ATOM     25  H   UNL     1     109.005  92.400 112.507  1.00  0.00     0.159 HD
ENDBRANCH  16  23
BRANCH  13  26
ATOM     26  C   UNL     1     103.540  95.819 116.056  1.00  0.00     0.000 A 
ATOM     27  C   UNL     1     103.544  97.215 116.041  1.00  0.00     0.010 A 
ATOM     28  C   UNL     1     102.330  95.125 116.030  1.00  0.00     0.010 A 
ATOM     29  C   UNL     1     102.339  97.916 116.001  1.00  0.00     0.001 A 
ATOM     30  C   UNL     1     101.124  95.827 115.990  1.00  0.00     0.001 A 
ATOM     31  C   UNL     1     101.129  97.221 115.975  1.00  0.00     0.000 A 
ENDBRANCH  13  26
TORSDOF 2
ENDMDL
MODEL 2
REMARK VINA RESULT:      -6.6      2.775      5.885
REMARK SMILES CN1C(=O)[C@]2(C(C#N)=C(N)Oc3n[nH]c(-c4ccccc4)c32)c2ccccc21
REMARK SMILES IDX 11 1 4 2 2 3 14 4 13 5 8 6 5 7 23 8 22 9 3 10 28 11 6 12
REMARK SMILES IDX 15 13 12 14 24 15 9 16 27 17 1 18 25 19 26 20 7 21 10 23
REMARK SMILES IDX 16 26 17 27 21 28 18 29 20 30 19 31
REMARK H PARENT 14 22 10 24 10 25
ROOT
ATOM      1  O   UNL     1     100.233  93.620 113.670  1.00  0.00    -0.420 OA
ATOM      2  O   UNL     1     102.819  96.533 111.894  1.00  0.00    -0.273 OA
ATOM      3  N   UNL     1     104.403  96.810 113.624  1.00  0.00    -0.314 N 
ATOM      4  N   UNL     1     103.015  91.925 112.785  1.00  0.00    -0.274 N 
ATOM      5  N   UNL     1     101.675  91.952 112.938  1.00  0.00    -0.136 NA
ATOM      6  N   UNL     1     100.742  98.174 115.220  1.00  0.00    -0.193 NA
ATOM      7  C   UNL     1     102.588  95.343 114.041  1.00  0.00     0.149 C 
ATOM      8  C   UNL     1     103.523  95.427 115.221  1.00  0.00     0.001 A 
ATOM      9  C   UNL     1     102.641  93.944 113.550  1.00  0.00     0.067 A 
ATOM     10  C   UNL     1     103.245  96.297 113.015  1.00  0.00     0.247 C 
ATOM     11  C   UNL     1     104.570  96.304 114.922  1.00  0.00     0.048 A 
ATOM     12  C   UNL     1     101.148  95.770 114.333  1.00  0.00     0.114 C 
ATOM     13  C   UNL     1     103.640  93.096 113.130  1.00  0.00     0.074 A 
ATOM     14  C   UNL     1     101.476  93.185 113.398  1.00  0.00     0.245 A 
ATOM     15  C   UNL     1     103.456  94.805 116.460  1.00  0.00     0.008 A 
ATOM     16  C   UNL     1     100.084  94.938 114.143  1.00  0.00     0.208 C 
ATOM     17  C   UNL     1     105.577  96.576 115.832  1.00  0.00     0.027 A 
ATOM     18  C   UNL     1     105.306  97.743 112.993  1.00  0.00     0.153 C 
ATOM     19  C   UNL     1     104.465  95.070 117.389  1.00  0.00     0.001 A 
ATOM     20  C   UNL     1     105.517  95.947 117.078  1.00  0.00     0.002 A 
ATOM     21  C   UNL     1     100.924  97.099 114.824  1.00  0.00     0.102 C 
ATOM     22  H   UNL     1     103.438  91.075 112.434  1.00  0.00     0.190 HD
ENDROOT
BRANCH  16  23
ATOM     23  N   UNL     1      98.779  95.276 114.388  1.00  0.00    -0.369 N 
ATOM     24  H   UNL     1      98.576  95.911 115.149  1.00  0.00     0.159 HD
ATOM     25  H   UNL     1      98.029  94.901 113.822  1.00  0.00     0.159 HD
ENDBRANCH  16  23
BRANCH  13  26
ATOM     26  C   UNL     1     105.067  93.262 113.015  1.00  0.00     0.000 A 
ATOM     27  C   UNL     1     105.901  92.887 114.071  1.00  0.00     0.010 A 
ATOM     28  C   UNL     1     105.616  93.797 111.850  1.00  0.00     0.010 A 
ATOM     29  C   UNL     1     107.282  93.049 113.960  1.00  0.00     0.001 A 
ATOM     30  C   UNL     1     106.998  93.959 111.740  1.00  0.00     0.001 A 
ATOM     31  C   UNL     1     107.831  93.585 112.794  1.00  0.00     0.000 A 
ENDBRANCH  13  26
TORSDOF 2
ENDMDL
MODEL 3
REMARK VINA RESULT:      -6.5      1.727      4.324
REMARK SMILES CN1C(=O)[C@]2(C(C#N)=C(N)Oc3n[nH]c(-c4ccccc4)c32)c2ccccc21
REMARK SMILES IDX 11 1 4 2 2 3 14 4 13 5 8 6 5 7 23 8 22 9 3 10 28 11 6 12
REMARK SMILES IDX 15 13 12 14 24 15 9 16 27 17 1 18 25 19 26 20 7 21 10 23
REMARK SMILES IDX 16 26 17 27 21 28 18 29 20 30 19 31
REMARK H PARENT 14 22 10 24 10 25
ROOT
ATOM      1  O   UNL     1     107.650  94.140 112.822  1.00  0.00    -0.420 OA
ATOM      2  O   UNL     1     104.131  91.929 113.852  1.00  0.00    -0.273 OA
ATOM      3  N   UNL     1     103.021  93.504 115.218  1.00  0.00    -0.314 N 
ATOM      4  N   UNL     1     105.166  95.507 110.989  1.00  0.00    -0.274 N 
ATOM      5  N   UNL     1     106.462  95.151 111.100  1.00  0.00    -0.136 NA
ATOM      6  N   UNL     1     106.585  92.552 117.266  1.00  0.00    -0.193 NA
ATOM      7  C   UNL     1     105.154  94.110 114.379  1.00  0.00     0.149 C 
ATOM      8  C   UNL     1     104.556  95.201 115.232  1.00  0.00     0.001 A 
ATOM      9  C   UNL     1     105.279  94.657 113.006  1.00  0.00     0.067 A 
ATOM     10  C   UNL     1     104.067  93.009 114.421  1.00  0.00     0.247 C 
ATOM     11  C   UNL     1     103.304  94.791 115.699  1.00  0.00     0.048 A 
ATOM     12  C   UNL     1     106.494  93.567 114.881  1.00  0.00     0.114 C 
ATOM     13  C   UNL     1     104.413  95.226 112.101  1.00  0.00     0.074 A 
ATOM     14  C   UNL     1     106.502  94.636 112.327  1.00  0.00     0.245 A 
ATOM     15  C   UNL     1     105.069  96.441 115.585  1.00  0.00     0.008 A 
ATOM     16  C   UNL     1     107.627  93.599 114.122  1.00  0.00     0.208 C 
ATOM     17  C   UNL     1     102.529  95.599 116.514  1.00  0.00     0.027 A 
ATOM     18  C   UNL     1     101.808  92.777 115.506  1.00  0.00     0.153 C 
ATOM     19  C   UNL     1     104.300  97.267 116.406  1.00  0.00     0.001 A 
ATOM     20  C   UNL     1     103.040  96.850 116.867  1.00  0.00     0.002 A 
ATOM     21  C   UNL     1     106.544  93.006 116.199  1.00  0.00     0.102 C 
ATOM     22  H   UNL     1     104.861  95.934 110.124  1.00  0.00     0.190 HD
ENDROOT
BRANCH  16  23
ATOM     23  N   UNL     1     108.847  93.124 114.526  1.00  0.00    -0.369 N 
ATOM     24  H   UNL     1     108.876  92.347 115.174  1.00  0.00     0.159 HD
ATOM     25  H   UNL     1     109.706  93.537 114.188  1.00  0.00     0.159 HD
ENDBRANCH  16  23
BRANCH  13  26
ATOM     26  C   UNL     1     103.003  95.519 112.161  1.00  0.00     0.000 A 
ATOM     27  C   UNL     1     102.565  96.749 112.654  1.00  0.00     0.010 A 
ATOM     28  C   UNL     1     102.075  94.572 111.728  1.00  0.00     0.010 A 
ATOM     29  C   UNL     1     101.201  97.031 112.714  1.00  0.00     0.001 A 
ATOM     30  C   UNL     1     100.709  94.854 111.788  1.00  0.00     0.001 A 
ATOM     31  C   UNL     1     100.272  96.083 112.280  1.00  0.00     0.000 A 
ENDBRANCH  13  26
TORSDOF 2
ENDMDL
MODEL 4
REMARK VINA RESULT:      -6.5      2.116      4.142
REMARK SMILES CN1C(=O)[C@]2(C(C#N)=C(N)Oc3n[nH]c(-c4ccccc4)c32)c2ccccc21
REMARK SMILES IDX 11 1 4 2 2 3 14 4 13 5 8 6 5 7 23 8 22 9 3 10 28 11 6 12
REMARK SMILES IDX 15 13 12 14 24 15 9 16 27 17 1 18 25 19 26 20 7 21 10 23
REMARK SMILES IDX 16 26 17 27 21 28 18 29 20 30 19 31
REMARK H PARENT 14 22 10 24 10 25
ROOT
ATOM      1  O   UNL     1     106.389  95.980 111.874  1.00  0.00    -0.420 OA
ATOM      2  O   UNL     1     103.147  93.183 111.943  1.00  0.00    -0.273 OA
ATOM      3  N   UNL     1     102.383  93.471 114.160  1.00  0.00    -0.314 N 
ATOM      4  N   UNL     1     103.585  97.856 111.748  1.00  0.00    -0.274 N 
ATOM      5  N   UNL     1     104.870  97.667 111.381  1.00  0.00    -0.136 NA
ATOM      6  N   UNL     1     106.293  91.925 114.511  1.00  0.00    -0.193 NA
ATOM      7  C   UNL     1     104.290  94.715 113.502  1.00  0.00     0.149 C 
ATOM      8  C   UNL     1     103.907  94.992 114.934  1.00  0.00     0.001 A 
ATOM      9  C   UNL     1     104.122  95.987 112.758  1.00  0.00     0.067 A 
ATOM     10  C   UNL     1     103.224  93.687 113.054  1.00  0.00     0.247 C 
ATOM     11  C   UNL     1     102.781  94.233 115.267  1.00  0.00     0.048 A 
ATOM     12  C   UNL     1     105.700  94.149 113.315  1.00  0.00     0.114 C 
ATOM     13  C   UNL     1     103.088  96.874 112.566  1.00  0.00     0.074 A 
ATOM     14  C   UNL     1     105.168  96.528 112.003  1.00  0.00     0.245 A 
ATOM     15  C   UNL     1     104.501  95.822 115.873  1.00  0.00     0.008 A 
ATOM     16  C   UNL     1     106.642  94.768 112.546  1.00  0.00     0.208 C 
ATOM     17  C   UNL     1     102.212  94.287 116.529  1.00  0.00     0.027 A 
ATOM     18  C   UNL     1     101.251  92.575 114.154  1.00  0.00     0.153 C 
ATOM     19  C   UNL     1     103.940  95.887 117.150  1.00  0.00     0.001 A 
ATOM     20  C   UNL     1     102.804  95.126 117.475  1.00  0.00     0.002 A 
ATOM     21  C   UNL     1     106.028  92.920 113.976  1.00  0.00     0.102 C 
ATOM     22  H   UNL     1     103.106  98.676 111.397  1.00  0.00     0.190 HD
ENDROOT
BRANCH  16  23
ATOM     23  N   UNL     1     107.913  94.300 112.347  1.00  0.00    -0.369 N 
ATOM     24  H   UNL     1     108.491  94.743 111.644  1.00  0.00     0.159 HD
ATOM     25  H   UNL     1     108.274  93.525 112.889  1.00  0.00     0.159 HD
ENDBRANCH  16  23
BRANCH  13  26
ATOM     26  C   UNL     1     101.729  96.896 113.045  1.00  0.00     0.000 A 
ATOM     27  C   UNL     1     101.428  97.504 114.266  1.00  0.00     0.010 A 
ATOM     28  C   UNL     1     100.713  96.310 112.290  1.00  0.00     0.010 A 
ATOM     29  C   UNL     1     100.113  97.524 114.729  1.00  0.00     0.001 A 
ATOM     30  C   UNL     1      99.397  96.330 112.754  1.00  0.00     0.001 A 
ATOM     31  C   UNL     1      99.097  96.936 113.973  1.00  0.00     0.000 A 
ENDBRANCH  13  26
TORSDOF 2
ENDMDL
MODEL 5
REMARK VINA RESULT:      -6.1      2.232      3.492
REMARK SMILES CN1C(=O)[C@]2(C(C#N)=C(N)Oc3n[nH]c(-c4ccccc4)c32)c2ccccc21
REMARK SMILES IDX 11 1 4 2 2 3 14 4 13 5 8 6 5 7 23 8 22 9 3 10 28 11 6 12
REMARK SMILES IDX 15 13 12 14 24 15 9 16 27 17 1 18 25 19 26 20 7 21 10 23
REMARK SMILES IDX 16 26 17 27 21 28 18 29 20 30 19 31
REMARK H PARENT 14 22 10 24 10 25
ROOT
ATOM      1  O   UNL     1     106.246  93.951 111.841  1.00  0.00    -0.420 OA
ATOM      2  O   UNL     1     105.439  96.277 115.344  1.00  0.00    -0.273 OA
ATOM      3  N   UNL     1     103.153  96.770 115.012  1.00  0.00    -0.314 N 
ATOM      4  N   UNL     1     104.462  91.925 113.869  1.00  0.00    -0.274 N 
ATOM      5  N   UNL     1     105.437  92.076 112.949  1.00  0.00    -0.136 NA
ATOM      6  N   UNL     1     105.187  98.671 111.841  1.00  0.00    -0.193 NA
ATOM      7  C   UNL     1     104.255  95.543 113.310  1.00  0.00     0.149 C 
ATOM      8  C   UNL     1     102.805  95.787 112.975  1.00  0.00     0.001 A 
ATOM      9  C   UNL     1     104.422  94.076 113.448  1.00  0.00     0.067 A 
ATOM     10  C   UNL     1     104.410  96.232 114.686  1.00  0.00     0.247 C 
ATOM     11  C   UNL     1     102.207  96.514 114.009  1.00  0.00     0.048 A 
ATOM     12  C   UNL     1     105.251  96.119 112.300  1.00  0.00     0.114 C 
ATOM     13  C   UNL     1     103.829  93.094 114.207  1.00  0.00     0.074 A 
ATOM     14  C   UNL     1     105.394  93.385 112.715  1.00  0.00     0.245 A 
ATOM     15  C   UNL     1     102.073  95.423 111.855  1.00  0.00     0.008 A 
ATOM     16  C   UNL     1     106.160  95.343 111.644  1.00  0.00     0.208 C 
ATOM     17  C   UNL     1     100.874  96.885 113.964  1.00  0.00     0.027 A 
ATOM     18  C   UNL     1     102.873  97.497 116.228  1.00  0.00     0.153 C 
ATOM     19  C   UNL     1     100.727  95.790 111.794  1.00  0.00     0.001 A 
ATOM     20  C   UNL     1     100.132  96.514 112.841  1.00  0.00     0.002 A 
ATOM     21  C   UNL     1     105.215  97.530 112.047  1.00  0.00     0.102 C 
ATOM     22  H   UNL     1     104.285  90.996 114.228  1.00  0.00     0.190 HD
ENDROOT
BRANCH  16  23
ATOM     23  N   UNL     1     107.071  95.813 110.735  1.00  0.00    -0.369 N 
ATOM     24  H   UNL     1     107.210  96.812 110.658  1.00  0.00     0.159 HD
ATOM     25  H   UNL     1     107.599  95.178 110.150  1.00  0.00     0.159 HD
ENDBRANCH  16  23
BRANCH  13  26
ATOM     26  C   UNL     1     102.773  93.133 115.188  1.00  0.00     0.000 A 
ATOM     27  C   UNL     1     103.072  93.390 116.527  1.00  0.00     0.010 A 
ATOM     28  C   UNL     1     101.452  92.913 114.798  1.00  0.00     0.010 A 
ATOM     29  C   UNL     1     102.050  93.427 117.475  1.00  0.00     0.001 A 
ATOM     30  C   UNL     1     100.429  92.949 115.747  1.00  0.00     0.001 A 
ATOM     31  C   UNL     1     100.728  93.206 117.085  1.00  0.00     0.000 A 
ENDBRANCH  13  26
TORSDOF 2
ENDMDL
MODEL 6
REMARK VINA RESULT:      -6.0      2.721      6.048
REMARK SMILES CN1C(=O)[C@]2(C(C#N)=C(N)Oc3n[nH]c(-c4ccccc4)c32)c2ccccc21
REMARK SMILES IDX 11 1 4 2 2 3 14 4 13 5 8 6 5 7 23 8 22 9 3 10 28 11 6 12
REMARK SMILES IDX 15 13 12 14 24 15 9 16 27 17 1 18 25 19 26 20 7 21 10 23
REMARK SMILES IDX 16 26 17 27 21 28 18 29 20 30 19 31
REMARK H PARENT 14 22 10 24 10 25
ROOT
ATOM      1  O   UNL     1      99.948  94.429 113.942  1.00  0.00    -0.420 OA
ATOM      2  O   UNL     1     103.015  97.374 113.445  1.00  0.00    -0.273 OA
ATOM      3  N   UNL     1     104.750  96.405 114.722  1.00  0.00    -0.314 N 
ATOM      4  N   UNL     1     102.159  93.063 111.786  1.00  0.00    -0.274 N 
ATOM      5  N   UNL     1     100.881  93.220 112.192  1.00  0.00    -0.136 NA
ATOM      6  N   UNL     1     101.665  97.253 117.474  1.00  0.00    -0.193 NA
ATOM      7  C   UNL     1     102.672  95.264 114.674  1.00  0.00     0.149 C 
ATOM      8  C   UNL     1     103.690  94.540 115.520  1.00  0.00     0.001 A 
ATOM      9  C   UNL     1     102.347  94.371 113.535  1.00  0.00     0.067 A 
ATOM     10  C   UNL     1     103.458  96.501 114.177  1.00  0.00     0.247 C 
ATOM     11  C   UNL     1     104.891  95.255 115.514  1.00  0.00     0.048 A 
ATOM     12  C   UNL     1     101.406  95.690 115.420  1.00  0.00     0.114 C 
ATOM     13  C   UNL     1     103.073  93.739 112.553  1.00  0.00     0.074 A 
ATOM     14  C   UNL     1     101.024  94.017 113.247  1.00  0.00     0.245 A 
ATOM     15  C   UNL     1     103.572  93.365 116.248  1.00  0.00     0.008 A 
ATOM     16  C   UNL     1     100.160  95.281 115.043  1.00  0.00     0.208 C 
ATOM     17  C   UNL     1     106.002  94.821 116.216  1.00  0.00     0.027 A 
ATOM     18  C   UNL     1     105.799  97.369 114.496  1.00  0.00     0.153 C 
ATOM     19  C   UNL     1     104.684  92.914 116.962  1.00  0.00     0.001 A 
ATOM     20  C   UNL     1     105.889  93.635 116.946  1.00  0.00     0.002 A 
ATOM     21  C   UNL     1     101.550  96.554 116.556  1.00  0.00     0.102 C 
ATOM     22  H   UNL     1     102.334  92.486 110.974  1.00  0.00     0.190 HD
ENDROOT
BRANCH  16  23
ATOM     23  N   UNL     1      99.000  95.637 115.677  1.00  0.00    -0.369 N 
ATOM     24  H   UNL     1      99.050  96.272 116.464  1.00  0.00     0.159 HD
ATOM     25  H   UNL     1      98.106  95.277 115.369  1.00  0.00     0.159 HD
ENDBRANCH  16  23
BRANCH  13  26
ATOM     26  C   UNL     1     104.485  93.706 112.262  1.00  0.00     0.000 A 
ATOM     27  C   UNL     1     105.285  92.693 112.795  1.00  0.00     0.010 A 
ATOM     28  C   UNL     1     105.053  94.687 111.449  1.00  0.00     0.010 A 
ATOM     29  C   UNL     1     106.651  92.663 112.514  1.00  0.00     0.001 A 
ATOM     30  C   UNL     1     106.420  94.657 111.169  1.00  0.00     0.001 A 
ATOM     31  C   UNL     1     107.218  93.645 111.701  1.00  0.00     0.000 A 
ENDBRANCH  13  26
TORSDOF 2
ENDMDL
MODEL 7
REMARK VINA RESULT:      -5.9      2.663      6.111
REMARK SMILES CN1C(=O)[C@]2(C(C#N)=C(N)Oc3n[nH]c(-c4ccccc4)c32)c2ccccc21
REMARK SMILES IDX 11 1 4 2 2 3 14 4 13 5 8 6 5 7 23 8 22 9 3 10 28 11 6 12
REMARK SMILES IDX 15 13 12 14 24 15 9 16 27 17 1 18 25 19 26 20 7 21 10 23
REMARK SMILES IDX 16 26 17 27 21 28 18 29 20 30 19 31
REMARK H PARENT 14 22 10 24 10 25
ROOT
ATOM      1  O   UNL     1      99.807  95.407 112.973  1.00  0.00    -0.420 OA
ATOM      2  O   UNL     1     103.369  97.733 112.488  1.00  0.00    -0.273 OA
ATOM      3  N   UNL     1     104.718  96.809 114.192  1.00  0.00    -0.314 N 
ATOM      4  N   UNL     1     102.033  93.339 111.501  1.00  0.00    -0.274 N 
ATOM      5  N   UNL     1     100.756  93.751 111.649  1.00  0.00    -0.136 NA
ATOM      6  N   UNL     1     101.470  98.618 116.187  1.00  0.00    -0.193 NA
ATOM      7  C   UNL     1     102.505  95.983 113.996  1.00  0.00     0.149 C 
ATOM      8  C   UNL     1     103.256  95.310 115.117  1.00  0.00     0.001 A 
ATOM      9  C   UNL     1     102.194  94.934 112.996  1.00  0.00     0.067 A 
ATOM     10  C   UNL     1     103.550  96.973 113.428  1.00  0.00     0.247 C 
ATOM     11  C   UNL     1     104.550  95.835 115.188  1.00  0.00     0.048 A 
ATOM     12  C   UNL     1     101.238  96.725 114.429  1.00  0.00     0.114 C 
ATOM     13  C   UNL     1     102.933  94.021 112.279  1.00  0.00     0.074 A 
ATOM     14  C   UNL     1     100.884  94.717 112.555  1.00  0.00     0.245 A 
ATOM     15  C   UNL     1     102.840  94.336 116.012  1.00  0.00     0.008 A 
ATOM     16  C   UNL     1     100.006  96.426 113.925  1.00  0.00     0.208 C 
ATOM     17  C   UNL     1     105.463  95.400 116.134  1.00  0.00     0.027 A 
ATOM     18  C   UNL     1     105.938  97.551 113.979  1.00  0.00     0.153 C 
ATOM     19  C   UNL     1     103.749  93.887 116.973  1.00  0.00     0.001 A 
ATOM     20  C   UNL     1     105.050  94.414 117.033  1.00  0.00     0.002 A 
ATOM     21  C   UNL     1     101.366  97.771 115.401  1.00  0.00     0.102 C 
ATOM     22  H   UNL     1     102.219  92.591 110.845  1.00  0.00     0.190 HD
ENDROOT
BRANCH  16  23
ATOM     23  N   UNL     1      98.846  97.062 114.280  1.00  0.00    -0.369 N 
ATOM     24  H   UNL     1      98.881  98.047 114.509  1.00  0.00     0.159 HD
ATOM     25  H   UNL     1      97.967  96.562 114.314  1.00  0.00     0.159 HD
ENDBRANCH  16  23
BRANCH  13  26
ATOM     26  C   UNL     1     104.345  93.733 112.242  1.00  0.00     0.000 A 
ATOM     27  C   UNL     1     104.861  92.672 112.988  1.00  0.00     0.010 A 
ATOM     28  C   UNL     1     105.196  94.515 111.461  1.00  0.00     0.010 A 
ATOM     29  C   UNL     1     106.228  92.395 112.953  1.00  0.00     0.001 A 
ATOM     30  C   UNL     1     106.564  94.238 111.427  1.00  0.00     0.001 A 
ATOM     31  C   UNL     1     107.079  93.178 112.172  1.00  0.00     0.000 A 
ENDBRANCH  13  26
TORSDOF 2
ENDMDL
MODEL 8
REMARK VINA RESULT:      -5.7      2.936      6.167
REMARK SMILES CN1C(=O)[C@]2(C(C#N)=C(N)Oc3n[nH]c(-c4ccccc4)c32)c2ccccc21
REMARK SMILES IDX 11 1 4 2 2 3 14 4 13 5 8 6 5 7 23 8 22 9 3 10 28 11 6 12
REMARK SMILES IDX 15 13 12 14 24 15 9 16 27 17 1 18 25 19 26 20 7 21 10 23
REMARK SMILES IDX 16 26 17 27 21 28 18 29 20 30 19 31
REMARK H PARENT 14 22 10 24 10 25
ROOT
ATOM      1  O   UNL     1      99.159  95.612 113.063  1.00  0.00    -0.420 OA
ATOM      2  O   UNL     1     102.053  97.355 115.693  1.00  0.00    -0.273 OA
ATOM      3  N   UNL     1     103.684  95.646 115.726  1.00  0.00    -0.314 N 
ATOM      4  N   UNL     1     101.702  96.592 111.071  1.00  0.00    -0.274 N 
ATOM      5  N   UNL     1     100.377  96.414 111.255  1.00  0.00    -0.136 NA
ATOM      6  N   UNL     1     100.239  93.948 117.475  1.00  0.00    -0.193 NA
ATOM      7  C   UNL     1     101.711  95.236 114.477  1.00  0.00     0.149 C 
ATOM      8  C   UNL     1     102.666  94.071 114.413  1.00  0.00     0.001 A 
ATOM      9  C   UNL     1     101.587  95.766 113.097  1.00  0.00     0.067 A 
ATOM     10  C   UNL     1     102.463  96.248 115.374  1.00  0.00     0.247 C 
ATOM     11  C   UNL     1     103.807  94.366 115.166  1.00  0.00     0.048 A 
ATOM     12  C   UNL     1     100.337  94.907 115.067  1.00  0.00     0.114 C 
ATOM     13  C   UNL     1     102.469  96.227 112.147  1.00  0.00     0.074 A 
ATOM     14  C   UNL     1     100.336  95.918 112.489  1.00  0.00     0.245 A 
ATOM     15  C   UNL     1     102.543  92.849 113.768  1.00  0.00     0.008 A 
ATOM     16  C   UNL     1      99.178  95.100 114.375  1.00  0.00     0.208 C 
ATOM     17  C   UNL     1     104.853  93.467 115.288  1.00  0.00     0.027 A 
ATOM     18  C   UNL     1     104.684  96.268 116.560  1.00  0.00     0.153 C 
ATOM     19  C   UNL     1     103.589  91.932 113.882  1.00  0.00     0.001 A 
ATOM     20  C   UNL     1     104.735  92.238 114.634  1.00  0.00     0.002 A 
ATOM     21  C   UNL     1     100.284  94.377 116.398  1.00  0.00     0.102 C 
ATOM     22  H   UNL     1     102.013  96.974 110.186  1.00  0.00     0.190 HD
ENDROOT
BRANCH  16  23
ATOM     23  N   UNL     1      97.927  94.823 114.860  1.00  0.00    -0.369 N 
ATOM     24  H   UNL     1      97.835  94.521 115.822  1.00  0.00     0.159 HD
ATOM     25  H   UNL     1      97.108  94.916 114.275  1.00  0.00     0.159 HD
ENDBRANCH  16  23
BRANCH  13  26
ATOM     26  C   UNL     1     103.904  96.362 112.142  1.00  0.00     0.000 A 
ATOM     27  C   UNL     1     104.708  95.273 111.799  1.00  0.00     0.010 A 
ATOM     28  C   UNL     1     104.491  97.582 112.481  1.00  0.00     0.010 A 
ATOM     29  C   UNL     1     106.096  95.405 111.796  1.00  0.00     0.001 A 
ATOM     30  C   UNL     1     105.880  97.713 112.479  1.00  0.00     0.001 A 
ATOM     31  C   UNL     1     106.683  96.625 112.136  1.00  0.00     0.000 A 
ENDBRANCH  13  26
TORSDOF 2
ENDMDL
MODEL 9
REMARK VINA RESULT:      -5.6      2.903      6.318
REMARK SMILES CN1C(=O)[C@]2(C(C#N)=C(N)Oc3n[nH]c(-c4ccccc4)c32)c2ccccc21
REMARK SMILES IDX 11 1 4 2 2 3 14 4 13 5 8 6 5 7 23 8 22 9 3 10 28 11 6 12
REMARK SMILES IDX 15 13 12 14 24 15 9 16 27 17 1 18 25 19 26 20 7 21 10 23
REMARK SMILES IDX 16 26 17 27 21 28 18 29 20 30 19 31
REMARK H PARENT 14 22 10 24 10 25
ROOT
ATOM      1  O   UNL     1      99.329  95.415 113.033  1.00  0.00    -0.420 OA
ATOM      2  O   UNL     1     102.959  97.518 113.891  1.00  0.00    -0.273 OA
ATOM      3  N   UNL     1     104.044  95.947 115.283  1.00  0.00    -0.314 N 
ATOM      4  N   UNL     1     101.706  93.888 111.185  1.00  0.00    -0.274 N 
ATOM      5  N   UNL     1     100.428  94.300 111.317  1.00  0.00    -0.136 NA
ATOM      6  N   UNL     1     100.577  97.111 117.389  1.00  0.00    -0.193 NA
ATOM      7  C   UNL     1     101.867  95.399 114.522  1.00  0.00     0.149 C 
ATOM      8  C   UNL     1     102.444  94.314 115.396  1.00  0.00     0.001 A 
ATOM      9  C   UNL     1     101.682  94.810 113.173  1.00  0.00     0.067 A 
ATOM     10  C   UNL     1     102.996  96.456 114.496  1.00  0.00     0.247 C 
ATOM     11  C   UNL     1     103.724  94.690 115.816  1.00  0.00     0.048 A 
ATOM     12  C   UNL     1     100.563  96.012 115.039  1.00  0.00     0.114 C 
ATOM     13  C   UNL     1     102.500  94.177 112.266  1.00  0.00     0.074 A 
ATOM     14  C   UNL     1     100.443  94.857 112.525  1.00  0.00     0.245 A 
ATOM     15  C   UNL     1     101.893  93.109 115.806  1.00  0.00     0.008 A 
ATOM     16  C   UNL     1      99.409  96.000 114.312  1.00  0.00     0.208 C 
ATOM     17  C   UNL     1     104.489  93.880 116.638  1.00  0.00     0.027 A 
ATOM     18  C   UNL     1     105.292  96.634 115.513  1.00  0.00     0.153 C 
ATOM     19  C   UNL     1     102.652  92.282 116.636  1.00  0.00     0.001 A 
ATOM     20  C   UNL     1     103.940  92.664 117.048  1.00  0.00     0.002 A 
ATOM     21  C   UNL     1     100.571  96.620 116.338  1.00  0.00     0.102 C 
ATOM     22  H   UNL     1     101.970  93.421 110.327  1.00  0.00     0.190 HD
ENDROOT
BRANCH  16  23
ATOM     23  N   UNL     1      98.221  96.537 114.731  1.00  0.00    -0.369 N 
ATOM     24  H   UNL     1      98.183  97.524 114.950  1.00  0.00     0.159 HD
ATOM     25  H   UNL     1      97.392  95.963 114.821  1.00  0.00     0.159 HD
ENDBRANCH  16  23
BRANCH  13  26
ATOM     26  C   UNL     1     103.899  93.830 112.299  1.00  0.00     0.000 A 
ATOM     27  C   UNL     1     104.307  92.628 112.880  1.00  0.00     0.010 A 
ATOM     28  C   UNL     1     104.845  94.696 111.752  1.00  0.00     0.010 A 
ATOM     29  C   UNL     1     105.660  92.294 112.914  1.00  0.00     0.001 A 
ATOM     30  C   UNL     1     106.200  94.362 111.786  1.00  0.00     0.001 A 
ATOM     31  C   UNL     1     106.607  93.161 112.366  1.00  0.00     0.000 A 
ENDBRANCH  13  26
TORSDOF 2
ENDMDL
MODEL 10
REMARK VINA RESULT:      -5.6      2.855      5.701
REMARK SMILES CN1C(=O)[C@]2(C(C#N)=C(N)Oc3n[nH]c(-c4ccccc4)c32)c2ccccc21
REMARK SMILES IDX 11 1 4 2 2 3 14 4 13 5 8 6 5 7 23 8 22 9 3 10 28 11 6 12
REMARK SMILES IDX 15 13 12 14 24 15 9 16 27 17 1 18 25 19 26 20 7 21 10 23
REMARK SMILES IDX 16 26 17 27 21 28 18 29 20 30 19 31
REMARK H PARENT 14 22 10 24 10 25
ROOT
ATOM      1  O   UNL     1     101.860  98.056 117.274  1.00  0.00    -0.420 OA
ATOM      2  O   UNL     1     102.524  93.828 117.415  1.00  0.00    -0.273 OA
ATOM      3  N   UNL     1     102.649  93.338 115.107  1.00  0.00    -0.314 N 
ATOM      4  N   UNL     1     105.119  97.635 116.497  1.00  0.00    -0.274 N 
ATOM      5  N   UNL     1     104.154  98.369 117.090  1.00  0.00    -0.136 NA
ATOM      6  N   UNL     1      98.712  94.711 115.755  1.00  0.00    -0.193 NA
ATOM      7  C   UNL     1     102.184  95.582 115.715  1.00  0.00     0.149 C 
ATOM      8  C   UNL     1     102.238  95.406 114.218  1.00  0.00     0.001 A 
ATOM      9  C   UNL     1     103.295  96.493 116.081  1.00  0.00     0.067 A 
ATOM     10  C   UNL     1     102.467  94.153 116.238  1.00  0.00     0.247 C 
ATOM     11  C   UNL     1     102.513  94.069 113.918  1.00  0.00     0.048 A 
ATOM     12  C   UNL     1     100.846  96.099 116.251  1.00  0.00     0.114 C 
ATOM     13  C   UNL     1     104.656  96.498 115.885  1.00  0.00     0.074 A 
ATOM     14  C   UNL     1     103.064  97.654 116.827  1.00  0.00     0.245 A 
ATOM     15  C   UNL     1     102.045  96.332 113.203  1.00  0.00     0.008 A 
ATOM     16  C   UNL     1     100.743  97.252 116.973  1.00  0.00     0.208 C 
ATOM     17  C   UNL     1     102.615  93.620 112.612  1.00  0.00     0.027 A 
ATOM     18  C   UNL     1     102.938  91.925 115.165  1.00  0.00     0.153 C 
ATOM     19  C   UNL     1     102.144  95.895 111.880  1.00  0.00     0.001 A 
ATOM     20  C   UNL     1     102.428  94.550 111.587  1.00  0.00     0.002 A 
ATOM     21  C   UNL     1      99.667  95.332 115.976  1.00  0.00     0.102 C 
ATOM     22  H   UNL     1     106.073  97.967 116.553  1.00  0.00     0.190 HD
ENDROOT
BRANCH  16  23
ATOM     23  N   UNL     1      99.571  97.752 117.475  1.00  0.00    -0.369 N 
ATOM     24  H   UNL     1      98.873  97.105 117.819  1.00  0.00     0.159 HD
ATOM     25  H   UNL     1      99.400  98.749 117.504  1.00  0.00     0.159 HD
ENDBRANCH  16  23
BRANCH  13  26
ATOM     26  C   UNL     1     105.542  95.580 115.214  1.00  0.00     0.000 A 
ATOM     27  C   UNL     1     105.849  95.764 113.865  1.00  0.00     0.010 A 
ATOM     28  C   UNL     1     106.092  94.505 115.913  1.00  0.00     0.010 A 
ATOM     29  C   UNL     1     106.704  94.874 113.216  1.00  0.00     0.001 A 
ATOM     30  C   UNL     1     106.948  93.614 115.263  1.00  0.00     0.001 A 
ATOM     31  C   UNL     1     107.254  93.799 113.915  1.00  0.00     0.000 A 
ENDBRANCH  13  26
TORSDOF 2
ENDMDL
MODEL 11
REMARK VINA RESULT:      -5.4      2.246      4.858
REMARK SMILES CN1C(=O)[C@]2(C(C#N)=C(N)Oc3n[nH]c(-c4ccccc4)c32)c2ccccc21
REMARK SMILES IDX 11 1 4 2 2 3 14 4 13 5 8 6 5 7 23 8 22 9 3 10 28 11 6 12
REMARK SMILES IDX 15 13 12 14 24 15 9 16 27 17 1 18 25 19 26 20 7 21 10 23
REMARK SMILES IDX 16 26 17 27 21 28 18 29 20 30 19 31
REMARK H PARENT 14 22 10 24 10 25
ROOT
ATOM      1  O   UNL     1     104.656  97.233 111.603  1.00  0.00    -0.420 OA
ATOM      2  O   UNL     1     103.516  97.371 115.728  1.00  0.00    -0.273 OA
ATOM      3  N   UNL     1     102.622  95.201 115.997  1.00  0.00    -0.314 N 
ATOM      4  N   UNL     1     106.959  95.376 113.230  1.00  0.00    -0.274 N 
ATOM      5  N   UNL     1     106.655  96.230 112.230  1.00  0.00    -0.136 NA
ATOM      6  N   UNL     1     100.096  97.123 113.216  1.00  0.00    -0.193 NA
ATOM      7  C   UNL     1     103.367  95.804 113.829  1.00  0.00     0.149 C 
ATOM      8  C   UNL     1     102.823  94.398 113.863  1.00  0.00     0.001 A 
ATOM      9  C   UNL     1     104.806  95.700 113.487  1.00  0.00     0.067 A 
ATOM     10  C   UNL     1     103.196  96.274 115.293  1.00  0.00     0.247 C 
ATOM     11  C   UNL     1     102.398  94.098 115.160  1.00  0.00     0.048 A 
ATOM     12  C   UNL     1     102.639  96.750 112.869  1.00  0.00     0.114 C 
ATOM     13  C   UNL     1     105.888  95.034 114.015  1.00  0.00     0.074 A 
ATOM     14  C   UNL     1     105.349  96.412 112.412  1.00  0.00     0.245 A 
ATOM     15  C   UNL     1     102.692  93.467 112.844  1.00  0.00     0.008 A 
ATOM     16  C   UNL     1     103.279  97.395 111.851  1.00  0.00     0.208 C 
ATOM     17  C   UNL     1     101.847  92.868 115.481  1.00  0.00     0.027 A 
ATOM     18  C   UNL     1     102.301  95.233 117.404  1.00  0.00     0.153 C 
ATOM     19  C   UNL     1     102.138  92.222 113.151  1.00  0.00     0.001 A 
ATOM     20  C   UNL     1     101.720  91.925 114.459  1.00  0.00     0.002 A 
ATOM     21  C   UNL     1     101.234  96.956 113.061  1.00  0.00     0.102 C 
ATOM     22  H   UNL     1     107.919  95.071 113.321  1.00  0.00     0.190 HD
ENDROOT
BRANCH  16  23
ATOM     23  N   UNL     1     102.672  98.250 110.970  1.00  0.00    -0.369 N 
ATOM     24  H   UNL     1     101.717  98.063 110.690  1.00  0.00     0.159 HD
ATOM     25  H   UNL     1     103.163  99.054 110.602  1.00  0.00     0.159 HD
ENDBRANCH  16  23
BRANCH  13  26
ATOM     26  C   UNL     1     106.022  94.146 115.143  1.00  0.00     0.000 A 
ATOM     27  C   UNL     1     106.420  94.648 116.384  1.00  0.00     0.010 A 
ATOM     28  C   UNL     1     105.756  92.785 114.995  1.00  0.00     0.010 A 
ATOM     29  C   UNL     1     106.551  93.789 117.475  1.00  0.00     0.001 A 
ATOM     30  C   UNL     1     105.887  91.925 116.087  1.00  0.00     0.001 A 
ATOM     31  C   UNL     1     106.284  92.427 117.326  1.00  0.00     0.000 A 
ENDBRANCH  13  26
TORSDOF 2
ENDMDL
MODEL 12
REMARK VINA RESULT:      -5.3      1.807      4.345
REMARK SMILES CN1C(=O)[C@]2(C(C#N)=C(N)Oc3n[nH]c(-c4ccccc4)c32)c2ccccc21
REMARK SMILES IDX 11 1 4 2 2 3 14 4 13 5 8 6 5 7 23 8 22 9 3 10 28 11 6 12
REMARK SMILES IDX 15 13 12 14 24 15 9 16 27 17 1 18 25 19 26 20 7 21 10 23
REMARK SMILES IDX 16 26 17 27 21 28 18 29 20 30 19 31
REMARK H PARENT 14 22 10 24 10 25
ROOT
ATOM      1  O   UNL     1     104.887  94.541 111.100  1.00  0.00    -0.420 OA
ATOM      2  O   UNL     1     104.595  91.926 114.478  1.00  0.00    -0.273 OA
ATOM      3  N   UNL     1     104.903  93.468 116.240  1.00  0.00    -0.314 N 
ATOM      4  N   UNL     1     101.857  95.162 112.453  1.00  0.00    -0.274 N 
ATOM      5  N   UNL     1     102.637  95.059 111.357  1.00  0.00    -0.136 NA
ATOM      6  N   UNL     1     108.536  93.473 114.093  1.00  0.00    -0.193 NA
ATOM      7  C   UNL     1     105.055  94.307 114.028  1.00  0.00     0.149 C 
ATOM      8  C   UNL     1     105.268  95.391 115.054  1.00  0.00     0.001 A 
ATOM      9  C   UNL     1     103.820  94.656 113.284  1.00  0.00     0.067 A 
ATOM     10  C   UNL     1     104.819  93.051 114.901  1.00  0.00     0.247 C 
ATOM     11  C   UNL     1     105.170  94.842 116.336  1.00  0.00     0.048 A 
ATOM     12  C   UNL     1     106.231  94.088 113.073  1.00  0.00     0.114 C 
ATOM     13  C   UNL     1     102.516  94.922 113.631  1.00  0.00     0.074 A 
ATOM     14  C   UNL     1     103.817  94.748 111.888  1.00  0.00     0.245 A 
ATOM     15  C   UNL     1     105.544  96.740 114.884  1.00  0.00     0.008 A 
ATOM     16  C   UNL     1     106.107  94.205 111.720  1.00  0.00     0.208 C 
ATOM     17  C   UNL     1     105.329  95.614 117.475  1.00  0.00     0.027 A 
ATOM     18  C   UNL     1     104.738  92.591 117.375  1.00  0.00     0.153 C 
ATOM     19  C   UNL     1     105.707  97.532 116.022  1.00  0.00     0.001 A 
ATOM     20  C   UNL     1     105.600  96.974 117.307  1.00  0.00     0.002 A 
ATOM     21  C   UNL     1     107.505  93.749 113.637  1.00  0.00     0.102 C 
ATOM     22  H   UNL     1     100.880  95.393 112.322  1.00  0.00     0.190 HD
ENDROOT
BRANCH  16  23
ATOM     23  N   UNL     1     107.128  94.017 110.826  1.00  0.00    -0.369 N 
ATOM     24  H   UNL     1     107.463  94.811 110.297  1.00  0.00     0.159 HD
ATOM     25  H   UNL     1     107.543  93.104 110.694  1.00  0.00     0.159 HD
ENDBRANCH  16  23
BRANCH  13  26
ATOM     26  C   UNL     1     101.842  94.969 114.905  1.00  0.00     0.000 A 
ATOM     27  C   UNL     1     101.533  96.199 115.487  1.00  0.00     0.010 A 
ATOM     28  C   UNL     1     101.500  93.784 115.557  1.00  0.00     0.010 A 
ATOM     29  C   UNL     1     100.882  96.244 116.720  1.00  0.00     0.001 A 
ATOM     30  C   UNL     1     100.850  93.828 116.791  1.00  0.00     0.001 A 
ATOM     31  C   UNL     1     100.540  95.058 117.372  1.00  0.00     0.000 A 
ENDBRANCH  13  26
TORSDOF 2
ENDMDL
MODEL 13
REMARK VINA RESULT:      -5.3      2.908      5.373
REMARK SMILES CN1C(=O)[C@]2(C(C#N)=C(N)Oc3n[nH]c(-c4ccccc4)c32)c2ccccc21
REMARK SMILES IDX 11 1 4 2 2 3 14 4 13 5 8 6 5 7 23 8 22 9 3 10 28 11 6 12
REMARK SMILES IDX 15 13 12 14 24 15 9 16 27 17 1 18 25 19 26 20 7 21 10 23
REMARK SMILES IDX 16 26 17 27 21 28 18 29 20 30 19 31
REMARK H PARENT 14 22 10 24 10 25
ROOT
ATOM      1  O   UNL     1      99.684  96.507 114.641  1.00  0.00    -0.420 OA
ATOM      2  O   UNL     1     101.396  92.632 114.019  1.00  0.00    -0.273 OA
ATOM      3  N   UNL     1     103.517  93.233 113.170  1.00  0.00    -0.314 N 
ATOM      4  N   UNL     1     101.929  96.109 117.132  1.00  0.00    -0.274 N 
ATOM      5  N   UNL     1     100.747  96.600 116.705  1.00  0.00    -0.136 NA
ATOM      6  N   UNL     1     100.730  94.610 110.316  1.00  0.00    -0.193 NA
ATOM      7  C   UNL     1     102.000  94.993 113.641  1.00  0.00     0.149 C 
ATOM      8  C   UNL     1     103.312  95.512 113.108  1.00  0.00     0.001 A 
ATOM      9  C   UNL     1     101.867  95.502 115.027  1.00  0.00     0.067 A 
ATOM     10  C   UNL     1     102.216  93.461 113.650  1.00  0.00     0.247 C 
ATOM     11  C   UNL     1     104.165  94.435 112.848  1.00  0.00     0.048 A 
ATOM     12  C   UNL     1     100.776  95.362 112.798  1.00  0.00     0.114 C 
ATOM     13  C   UNL     1     102.634  95.437 116.167  1.00  0.00     0.074 A 
ATOM     14  C   UNL     1     100.733  96.215 115.432  1.00  0.00     0.245 A 
ATOM     15  C   UNL     1     103.721  96.813 112.856  1.00  0.00     0.008 A 
ATOM     16  C   UNL     1      99.722  96.063 113.305  1.00  0.00     0.208 C 
ATOM     17  C   UNL     1     105.441  94.620 112.343  1.00  0.00     0.027 A 
ATOM     18  C   UNL     1     104.110  91.925 113.025  1.00  0.00     0.153 C 
ATOM     19  C   UNL     1     105.006  97.016 112.347  1.00  0.00     0.001 A 
ATOM     20  C   UNL     1     105.859  95.929 112.094  1.00  0.00     0.002 A 
ATOM     21  C   UNL     1     100.751  94.946 111.426  1.00  0.00     0.102 C 
ATOM     22  H   UNL     1     102.189  96.266 118.098  1.00  0.00     0.190 HD
ENDROOT
BRANCH  16  23
ATOM     23  N   UNL     1      98.607  96.414 112.592  1.00  0.00    -0.369 N 
ATOM     24  H   UNL     1      98.143  97.286 112.812  1.00  0.00     0.159 HD
ATOM     25  H   UNL     1      98.248  95.817 111.858  1.00  0.00     0.159 HD
ENDBRANCH  16  23
BRANCH  13  26
ATOM     26  C   UNL     1     103.911  94.827 116.442  1.00  0.00     0.000 A 
ATOM     27  C   UNL     1     105.086  95.566 116.287  1.00  0.00     0.010 A 
ATOM     28  C   UNL     1     103.974  93.498 116.861  1.00  0.00     0.010 A 
ATOM     29  C   UNL     1     106.321  94.975 116.552  1.00  0.00     0.001 A 
ATOM     30  C   UNL     1     105.211  92.907 117.126  1.00  0.00     0.001 A 
ATOM     31  C   UNL     1     106.384  93.645 116.971  1.00  0.00     0.000 A 
ENDBRANCH  13  26
TORSDOF 2
ENDMDL
MODEL 14
REMARK VINA RESULT:      -5.2      2.716      5.380
REMARK SMILES CN1C(=O)[C@]2(C(C#N)=C(N)Oc3n[nH]c(-c4ccccc4)c32)c2ccccc21
REMARK SMILES IDX 11 1 4 2 2 3 14 4 13 5 8 6 5 7 23 8 22 9 3 10 28 11 6 12
REMARK SMILES IDX 15 13 12 14 24 15 9 16 27 17 1 18 25 19 26 20 7 21 10 23
REMARK SMILES IDX 16 26 17 27 21 28 18 29 20 30 19 31
REMARK H PARENT 14 22 10 24 10 25
ROOT
ATOM      1  O   UNL     1     100.433  94.208 111.732  1.00  0.00    -0.420 OA
ATOM      2  O   UNL     1     104.703  94.460 111.539  1.00  0.00    -0.273 OA
ATOM      3  N   UNL     1     105.156  95.593 113.561  1.00  0.00    -0.314 N 
ATOM      4  N   UNL     1     101.565  91.925 113.947  1.00  0.00    -0.274 N 
ATOM      5  N   UNL     1     100.644  92.294 113.032  1.00  0.00    -0.136 NA
ATOM      6  N   UNL     1     102.939  98.314 111.219  1.00  0.00    -0.193 NA
ATOM      7  C   UNL     1     102.879  95.219 113.016  1.00  0.00     0.149 C 
ATOM      8  C   UNL     1     103.028  95.947 114.328  1.00  0.00     0.001 A 
ATOM      9  C   UNL     1     102.252  93.909 113.320  1.00  0.00     0.067 A 
ATOM     10  C   UNL     1     104.346  95.020 112.565  1.00  0.00     0.247 C 
ATOM     11  C   UNL     1     104.386  96.141 114.598  1.00  0.00     0.048 A 
ATOM     12  C   UNL     1     102.084  95.977 111.950  1.00  0.00     0.114 C 
ATOM     13  C   UNL     1     102.553  92.854 114.150  1.00  0.00     0.074 A 
ATOM     14  C   UNL     1     101.087  93.495 112.666  1.00  0.00     0.245 A 
ATOM     15  C   UNL     1     102.061  96.416 115.204  1.00  0.00     0.008 A 
ATOM     16  C   UNL     1     100.955  95.467 111.378  1.00  0.00     0.208 C 
ATOM     17  C   UNL     1     104.817  96.792 115.742  1.00  0.00     0.027 A 
ATOM     18  C   UNL     1     106.598  95.615 113.520  1.00  0.00     0.153 C 
ATOM     19  C   UNL     1     102.478  97.075 116.362  1.00  0.00     0.001 A 
ATOM     20  C   UNL     1     103.845  97.260 116.630  1.00  0.00     0.002 A 
ATOM     21  C   UNL     1     102.557  97.269 111.546  1.00  0.00     0.102 C 
ATOM     22  H   UNL     1     101.460  91.022 114.391  1.00  0.00     0.190 HD
ENDROOT
BRANCH  16  23
ATOM     23  N   UNL     1     100.212  96.106 110.421  1.00  0.00    -0.369 N 
ATOM     24  H   UNL     1      99.742  95.549 109.718  1.00  0.00     0.159 HD
ATOM     25  H   UNL     1     100.131  97.114 110.411  1.00  0.00     0.159 HD
ENDBRANCH  16  23
BRANCH  13  26
ATOM     26  C   UNL     1     103.633  92.628 115.077  1.00  0.00     0.000 A 
ATOM     27  C   UNL     1     104.860  92.145 114.617  1.00  0.00     0.010 A 
ATOM     28  C   UNL     1     103.453  92.891 116.435  1.00  0.00     0.010 A 
ATOM     29  C   UNL     1     105.904  91.925 115.514  1.00  0.00     0.001 A 
ATOM     30  C   UNL     1     104.499  92.671 117.333  1.00  0.00     0.001 A 
ATOM     31  C   UNL     1     105.724  92.188 116.873  1.00  0.00     0.000 A 
ENDBRANCH  13  26
TORSDOF 2
ENDMDL
MODEL 15
REMARK VINA RESULT:      -5.1      2.331      5.168
REMARK SMILES CN1C(=O)[C@]2(C(C#N)=C(N)Oc3n[nH]c(-c4ccccc4)c32)c2ccccc21
REMARK SMILES IDX 11 1 4 2 2 3 14 4 13 5 8 6 5 7 23 8 22 9 3 10 28 11 6 12
REMARK SMILES IDX 15 13 12 14 24 15 9 16 27 17 1 18 25 19 26 20 7 21 10 23
REMARK SMILES IDX 16 26 17 27 21 28 18 29 20 30 19 31
REMARK H PARENT 14 22 10 24 10 25
ROOT
ATOM      1  O   UNL     1     104.731  97.779 112.616  1.00  0.00    -0.420 OA
ATOM      2  O   UNL     1     104.144  93.538 112.654  1.00  0.00    -0.273 OA
ATOM      3  N   UNL     1     102.500  93.349 114.339  1.00  0.00    -0.314 N 
ATOM      4  N   UNL     1     101.762  97.273 111.090  1.00  0.00    -0.274 N 
ATOM      5  N   UNL     1     102.908  97.978 111.190  1.00  0.00    -0.136 NA
ATOM      6  N   UNL     1     105.931  94.856 116.279  1.00  0.00    -0.193 NA
ATOM      7  C   UNL     1     103.348  95.517 113.891  1.00  0.00     0.149 C 
ATOM      8  C   UNL     1     102.307  95.537 114.982  1.00  0.00     0.001 A 
ATOM      9  C   UNL     1     102.800  96.305 112.760  1.00  0.00     0.067 A 
ATOM     10  C   UNL     1     103.421  94.018 113.514  1.00  0.00     0.247 C 
ATOM     11  C   UNL     1     101.845  94.236 115.205  1.00  0.00     0.048 A 
ATOM     12  C   UNL     1     104.725  96.037 114.310  1.00  0.00     0.114 C 
ATOM     13  C   UNL     1     101.653  96.255 112.003  1.00  0.00     0.074 A 
ATOM     14  C   UNL     1     103.517  97.370 112.204  1.00  0.00     0.245 A 
ATOM     15  C   UNL     1     101.818  96.597 115.731  1.00  0.00     0.008 A 
ATOM     16  C   UNL     1     105.331  97.089 113.687  1.00  0.00     0.208 C 
ATOM     17  C   UNL     1     100.883  93.958 116.162  1.00  0.00     0.027 A 
ATOM     18  C   UNL     1     102.261  91.926 114.299  1.00  0.00     0.153 C 
ATOM     19  C   UNL     1     100.848  96.333 116.700  1.00  0.00     0.001 A 
ATOM     20  C   UNL     1     100.384  95.024 116.913  1.00  0.00     0.002 A 
ATOM     21  C   UNL     1     105.392  95.384 115.398  1.00  0.00     0.102 C 
ATOM     22  H   UNL     1     101.101  97.537 110.371  1.00  0.00     0.190 HD
ENDROOT
BRANCH  16  23
ATOM     23  N   UNL     1     106.561  97.588 114.024  1.00  0.00    -0.369 N 
ATOM     24  H   UNL     1     106.795  97.685 115.004  1.00  0.00     0.159 HD
ATOM     25  H   UNL     1     107.228  97.857 113.312  1.00  0.00     0.159 HD
ENDBRANCH  16  23
BRANCH  13  26
ATOM     26  C   UNL     1     100.506  95.382 112.038  1.00  0.00     0.000 A 
ATOM     27  C   UNL     1      99.386  95.728 112.796  1.00  0.00     0.010 A 
ATOM     28  C   UNL     1     100.516  94.189 111.314  1.00  0.00     0.010 A 
ATOM     29  C   UNL     1      98.278  94.882 112.830  1.00  0.00     0.001 A 
ATOM     30  C   UNL     1      99.407  93.342 111.349  1.00  0.00     0.001 A 
ATOM     31  C   UNL     1      98.288  93.689 112.106  1.00  0.00     0.000 A 
ENDBRANCH  13  26
TORSDOF 2
ENDMDL
