MODEL 1
REMARK VINA RESULT:      -8.2      0.000      0.000
REMARK SMILES O=C1C[C@@H](C(=O)NCc2ccc3c(c2)OCCO3)c2ccccc2N1
REMARK SMILES IDX 6 1 7 2 5 3 4 5 3 6 19 7 2 8 24 9 20 10 1 11 25 12 23 13
REMARK SMILES IDX 21 14 22 15 8 17 9 18 14 19 10 20 13 21 11 22 15 23 12 24
REMARK SMILES IDX 16 25 18 26 17 27
REMARK H PARENT 7 4 25 16
ROOT
ATOM      1  O   UNL     1      95.655 108.600 105.425  1.00  0.00    -0.274 OA
ATOM      2  N   UNL     1      96.150 107.749 107.534  1.00  0.00    -0.351 N 
ATOM      3  C   UNL     1      96.009 107.681 106.159  1.00  0.00     0.228 C 
ATOM      4  H   UNL     1      96.479 106.934 108.043  1.00  0.00     0.163 HD
ENDROOT
BRANCH   3   5
ATOM      5  C   UNL     1      96.366 106.329 105.618  1.00  0.00     0.120 C 
ATOM      6  C   UNL     1      97.586 105.778 106.351  1.00  0.00     0.118 C 
ATOM      7  C   UNL     1      96.580 106.385 104.131  1.00  0.00    -0.011 A 
ATOM      8  C   UNL     1      98.915 106.295 105.831  1.00  0.00     0.225 C 
ATOM      9  C   UNL     1      97.874 106.522 103.615  1.00  0.00     0.045 A 
ATOM     10  C   UNL     1      95.492 106.372 103.248  1.00  0.00     0.007 A 
ATOM     11  O   UNL     1      99.892 106.390 106.576  1.00  0.00    -0.275 OA
ATOM     12  N   UNL     1      98.982 106.550 104.478  1.00  0.00    -0.326 N 
ATOM     13  C   UNL     1      98.079 106.659 102.240  1.00  0.00     0.026 A 
ATOM     14  C   UNL     1      95.698 106.491 101.873  1.00  0.00     0.000 A 
ATOM     15  C   UNL     1      96.989 106.636 101.370  1.00  0.00     0.002 A 
ATOM     16  H   UNL     1      99.887 106.778 104.078  1.00  0.00     0.169 HD
ENDBRANCH   3   5
BRANCH   2  17
ATOM     17  C   UNL     1      95.890 108.949 108.297  1.00  0.00     0.151 C 
BRANCH  17  18
ATOM     18  C   UNL     1      96.328 108.811 109.726  1.00  0.00    -0.025 A 
ATOM     19  C   UNL     1      95.691 109.551 110.723  1.00  0.00     0.056 A 
ATOM     20  C   UNL     1      97.372 107.947 110.055  1.00  0.00     0.009 A 
ATOM     21  C   UNL     1      96.105 109.427 112.050  1.00  0.00     0.161 A 
ATOM     22  C   UNL     1      97.777 107.813 111.384  1.00  0.00     0.051 A 
ATOM     23  O   UNL     1      95.455 110.195 112.981  1.00  0.00    -0.486 OA
ATOM     24  C   UNL     1      97.133 108.542 112.383  1.00  0.00     0.161 A 
ATOM     25  C   UNL     1      96.171 110.253 114.218  1.00  0.00     0.271 C 
ATOM     26  O   UNL     1      97.561 108.352 113.670  1.00  0.00    -0.486 OA
ATOM     27  C   UNL     1      96.628 108.866 114.624  1.00  0.00     0.271 C 
ENDBRANCH  17  18
ENDBRANCH   2  17
TORSDOF 3
ENDMDL
MODEL 2
REMARK VINA RESULT:      -7.8      0.994      1.649
REMARK SMILES O=C1C[C@@H](C(=O)NCc2ccc3c(c2)OCCO3)c2ccccc2N1
REMARK SMILES IDX 6 1 7 2 5 3 4 5 3 6 19 7 2 8 24 9 20 10 1 11 25 12 23 13
REMARK SMILES IDX 21 14 22 15 8 17 9 18 14 19 10 20 13 21 11 22 15 23 12 24
REMARK SMILES IDX 16 25 18 26 17 27
REMARK H PARENT 7 4 25 16
ROOT
ATOM      1  O   UNL     1      95.824 108.744 105.923  1.00  0.00    -0.274 OA
ATOM      2  N   UNL     1      96.183 107.953 108.082  1.00  0.00    -0.351 N 
ATOM      3  C   UNL     1      96.127 107.845 106.704  1.00  0.00     0.228 C 
ATOM      4  H   UNL     1      96.475 107.152 108.635  1.00  0.00     0.163 HD
ENDROOT
BRANCH   3   5
ATOM      5  C   UNL     1      96.508 106.476 106.226  1.00  0.00     0.120 C 
ATOM      6  C   UNL     1      97.752 105.992 106.964  1.00  0.00     0.118 C 
ATOM      7  C   UNL     1      96.696 106.462 104.735  1.00  0.00    -0.011 A 
ATOM      8  C   UNL     1      99.060 106.513 106.396  1.00  0.00     0.225 C 
ATOM      9  C   UNL     1      97.978 106.603 104.190  1.00  0.00     0.045 A 
ATOM     10  C   UNL     1      95.595 106.378 103.872  1.00  0.00     0.007 A 
ATOM     11  O   UNL     1     100.046 106.669 107.118  1.00  0.00    -0.275 OA
ATOM     12  N   UNL     1      99.099 106.701 105.030  1.00  0.00    -0.326 N 
ATOM     13  C   UNL     1      98.157 106.675 102.806  1.00  0.00     0.026 A 
ATOM     14  C   UNL     1      95.776 106.432 102.490  1.00  0.00     0.000 A 
ATOM     15  C   UNL     1      97.054 106.583 101.957  1.00  0.00     0.002 A 
ATOM     16  H   UNL     1      99.991 106.930 104.604  1.00  0.00     0.169 HD
ENDBRANCH   3   5
BRANCH   2  17
ATOM     17  C   UNL     1      95.884 109.176 108.793  1.00  0.00     0.151 C 
BRANCH  17  18
ATOM     18  C   UNL     1      96.115 109.038 110.270  1.00  0.00    -0.025 A 
ATOM     19  C   UNL     1      96.627 107.847 110.785  1.00  0.00     0.056 A 
ATOM     20  C   UNL     1      95.814 110.097 111.125  1.00  0.00     0.009 A 
ATOM     21  C   UNL     1      96.833 107.717 112.159  1.00  0.00     0.161 A 
ATOM     22  C   UNL     1      96.032 109.974 112.497  1.00  0.00     0.051 A 
ATOM     23  O   UNL     1      97.319 106.516 112.607  1.00  0.00    -0.486 OA
ATOM     24  C   UNL     1      96.557 108.788 113.013  1.00  0.00     0.161 A 
ATOM     25  C   UNL     1      97.165 106.374 114.022  1.00  0.00     0.271 C 
ATOM     26  O   UNL     1      96.770 108.734 114.364  1.00  0.00    -0.486 OA
ATOM     27  C   UNL     1      97.613 107.638 114.729  1.00  0.00     0.271 C 
ENDBRANCH  17  18
ENDBRANCH   2  17
TORSDOF 3
ENDMDL
MODEL 3
REMARK VINA RESULT:      -7.1     13.758     16.231
REMARK SMILES O=C1C[C@@H](C(=O)NCc2ccc3c(c2)OCCO3)c2ccccc2N1
REMARK SMILES IDX 6 1 7 2 5 3 4 5 3 6 19 7 2 8 24 9 20 10 1 11 25 12 23 13
REMARK SMILES IDX 21 14 22 15 8 17 9 18 14 19 10 20 13 21 11 22 15 23 12 24
REMARK SMILES IDX 16 25 18 26 17 27
REMARK H PARENT 7 4 25 16
ROOT
ATOM      1  O   UNL     1     103.811  97.904 111.970  1.00  0.00    -0.274 OA
ATOM      2  N   UNL     1     103.374  96.450 113.734  1.00  0.00    -0.351 N 
ATOM      3  C   UNL     1     104.189  97.193 112.897  1.00  0.00     0.228 C 
ATOM      4  H   UNL     1     103.790  95.916 114.492  1.00  0.00     0.163 HD
ENDROOT
BRANCH   3   5
ATOM      5  C   UNL     1     105.639  97.062 113.255  1.00  0.00     0.120 C 
ATOM      6  C   UNL     1     106.487  97.005 111.987  1.00  0.00     0.118 C 
ATOM      7  C   UNL     1     105.868  95.868 114.139  1.00  0.00    -0.011 A 
ATOM      8  C   UNL     1     106.561  95.632 111.344  1.00  0.00     0.225 C 
ATOM      9  C   UNL     1     106.279  94.652 113.581  1.00  0.00     0.045 A 
ATOM     10  C   UNL     1     105.608  95.934 115.515  1.00  0.00     0.007 A 
ATOM     11  O   UNL     1     106.724  95.510 110.129  1.00  0.00    -0.275 OA
ATOM     12  N   UNL     1     106.534  94.554 112.204  1.00  0.00    -0.326 N 
ATOM     13  C   UNL     1     106.414  93.514 114.381  1.00  0.00     0.026 A 
ATOM     14  C   UNL     1     105.760  94.802 116.317  1.00  0.00     0.000 A 
ATOM     15  C   UNL     1     106.161  93.594 115.751  1.00  0.00     0.002 A 
ATOM     16  H   UNL     1     106.705  93.630 111.820  1.00  0.00     0.169 HD
ENDBRANCH   3   5
BRANCH   2  17
ATOM     17  C   UNL     1     101.933  96.422 113.615  1.00  0.00     0.151 C 
BRANCH  17  18
ATOM     18  C   UNL     1     101.478  95.518 112.508  1.00  0.00    -0.025 A 
ATOM     19  C   UNL     1     100.736  96.036 111.446  1.00  0.00     0.056 A 
ATOM     20  C   UNL     1     101.794  94.160 112.542  1.00  0.00     0.009 A 
ATOM     21  C   UNL     1     100.307  95.192 110.422  1.00  0.00     0.161 A 
ATOM     22  C   UNL     1     101.377  93.317 111.511  1.00  0.00     0.051 A 
ATOM     23  O   UNL     1      99.564  95.757 109.418  1.00  0.00    -0.486 OA
ATOM     24  C   UNL     1     100.646  93.837 110.442  1.00  0.00     0.161 A 
ATOM     25  C   UNL     1      98.898  94.768 108.627  1.00  0.00     0.271 C 
ATOM     26  O   UNL     1     100.284  92.966 109.450  1.00  0.00    -0.486 OA
ATOM     27  C   UNL     1      99.856  93.650 108.269  1.00  0.00     0.271 C 
ENDBRANCH  17  18
ENDBRANCH   2  17
TORSDOF 3
ENDMDL
MODEL 4
REMARK VINA RESULT:      -7.0     13.648     15.461
REMARK SMILES O=C1C[C@@H](C(=O)NCc2ccc3c(c2)OCCO3)c2ccccc2N1
REMARK SMILES IDX 6 1 7 2 5 3 4 5 3 6 19 7 2 8 24 9 20 10 1 11 25 12 23 13
REMARK SMILES IDX 21 14 22 15 8 17 9 18 14 19 10 20 13 21 11 22 15 23 12 24
REMARK SMILES IDX 16 25 18 26 17 27
REMARK H PARENT 7 4 25 16
ROOT
ATOM      1  O   UNL     1     103.948  94.155 111.827  1.00  0.00    -0.274 OA
ATOM      2  N   UNL     1     102.999  96.264 112.089  1.00  0.00    -0.351 N 
ATOM      3  C   UNL     1     104.038  95.349 112.099  1.00  0.00     0.228 C 
ATOM      4  H   UNL     1     103.190  97.239 112.303  1.00  0.00     0.163 HD
ENDROOT
BRANCH   3   5
ATOM      5  C   UNL     1     105.347  95.981 112.466  1.00  0.00     0.120 C 
ATOM      6  C   UNL     1     106.222  96.130 111.225  1.00  0.00     0.118 C 
ATOM      7  C   UNL     1     106.035  95.199 113.550  1.00  0.00    -0.011 A 
ATOM      8  C   UNL     1     106.981  94.874 110.839  1.00  0.00     0.225 C 
ATOM      9  C   UNL     1     107.010  94.251 113.217  1.00  0.00     0.045 A 
ATOM     10  C   UNL     1     105.665  95.354 114.893  1.00  0.00     0.007 A 
ATOM     11  O   UNL     1     107.279  94.650 109.665  1.00  0.00    -0.275 OA
ATOM     12  N   UNL     1     107.392  94.067 111.879  1.00  0.00    -0.326 N 
ATOM     13  C   UNL     1     107.597  93.460 114.208  1.00  0.00     0.026 A 
ATOM     14  C   UNL     1     106.264  94.575 115.884  1.00  0.00     0.000 A 
ATOM     15  C   UNL     1     107.227  93.628 115.542  1.00  0.00     0.002 A 
ATOM     16  H   UNL     1     108.005  93.286 111.666  1.00  0.00     0.169 HD
ENDBRANCH   3   5
BRANCH   2  17
ATOM     17  C   UNL     1     101.640  95.913 111.745  1.00  0.00     0.151 C 
BRANCH  17  18
ATOM     18  C   UNL     1     100.661  96.374 112.786  1.00  0.00    -0.025 A 
ATOM     19  C   UNL     1     101.111  97.087 113.897  1.00  0.00     0.056 A 
ATOM     20  C   UNL     1      99.304  96.086 112.642  1.00  0.00     0.009 A 
ATOM     21  C   UNL     1     100.201  97.507 114.867  1.00  0.00     0.161 A 
ATOM     22  C   UNL     1      98.391  96.518 113.605  1.00  0.00     0.051 A 
ATOM     23  O   UNL     1     100.706  98.185 115.946  1.00  0.00    -0.486 OA
ATOM     24  C   UNL     1      98.838  97.242 114.710  1.00  0.00     0.161 A 
ATOM     25  C   UNL     1      99.763  98.259 117.019  1.00  0.00     0.271 C 
ATOM     26  O   UNL     1      97.893  97.657 115.610  1.00  0.00    -0.486 OA
ATOM     27  C   UNL     1      98.400  98.662 116.492  1.00  0.00     0.271 C 
ENDBRANCH  17  18
ENDBRANCH   2  17
TORSDOF 3
ENDMDL
MODEL 5
REMARK VINA RESULT:      -7.0     13.510     15.372
REMARK SMILES O=C1C[C@@H](C(=O)NCc2ccc3c(c2)OCCO3)c2ccccc2N1
REMARK SMILES IDX 6 1 7 2 5 3 4 5 3 6 19 7 2 8 24 9 20 10 1 11 25 12 23 13
REMARK SMILES IDX 21 14 22 15 8 17 9 18 14 19 10 20 13 21 11 22 15 23 12 24
REMARK SMILES IDX 16 25 18 26 17 27
REMARK H PARENT 7 4 25 16
ROOT
ATOM      1  O   UNL     1     103.674  94.099 112.201  1.00  0.00    -0.274 OA
ATOM      2  N   UNL     1     102.606  96.157 111.994  1.00  0.00    -0.351 N 
ATOM      3  C   UNL     1     103.672  95.324 112.290  1.00  0.00     0.228 C 
ATOM      4  H   UNL     1     102.721  97.163 112.074  1.00  0.00     0.163 HD
ENDROOT
BRANCH   3   5
ATOM      5  C   UNL     1     104.885  96.090 112.727  1.00  0.00     0.120 C 
ATOM      6  C   UNL     1     105.747  96.439 111.517  1.00  0.00     0.118 C 
ATOM      7  C   UNL     1     105.656  95.324 113.766  1.00  0.00    -0.011 A 
ATOM      8  C   UNL     1     106.665  95.320 111.058  1.00  0.00     0.225 C 
ATOM      9  C   UNL     1     106.748  94.535 113.386  1.00  0.00     0.045 A 
ATOM     10  C   UNL     1     105.254  95.333 115.108  1.00  0.00     0.007 A 
ATOM     11  O   UNL     1     107.002  95.223 109.877  1.00  0.00    -0.275 OA
ATOM     12  N   UNL     1     107.164  94.499 112.046  1.00  0.00    -0.326 N 
ATOM     13  C   UNL     1     107.421  93.755 114.330  1.00  0.00     0.026 A 
ATOM     14  C   UNL     1     105.938  94.566 116.054  1.00  0.00     0.000 A 
ATOM     15  C   UNL     1     107.018  93.777 115.665  1.00  0.00     0.002 A 
ATOM     16  H   UNL     1     107.875  93.820 111.790  1.00  0.00     0.169 HD
ENDBRANCH   3   5
BRANCH   2  17
ATOM     17  C   UNL     1     101.327  95.670 111.528  1.00  0.00     0.151 C 
BRANCH  17  18
ATOM     18  C   UNL     1     100.194  96.165 112.378  1.00  0.00    -0.025 A 
ATOM     19  C   UNL     1      98.894  96.165 111.873  1.00  0.00     0.056 A 
ATOM     20  C   UNL     1     100.443  96.629 113.670  1.00  0.00     0.009 A 
ATOM     21  C   UNL     1      97.843  96.634 112.662  1.00  0.00     0.161 A 
ATOM     22  C   UNL     1      99.390  97.086 114.465  1.00  0.00     0.051 A 
ATOM     23  O   UNL     1      96.591  96.628 112.103  1.00  0.00    -0.486 OA
ATOM     24  C   UNL     1      98.088  97.073 113.966  1.00  0.00     0.161 A 
ATOM     25  C   UNL     1      95.671  97.432 112.847  1.00  0.00     0.271 C 
ATOM     26  O   UNL     1      97.095  97.513 114.800  1.00  0.00    -0.486 OA
ATOM     27  C   UNL     1      95.797  97.139 114.329  1.00  0.00     0.271 C 
ENDBRANCH  17  18
ENDBRANCH   2  17
TORSDOF 3
ENDMDL
MODEL 6
REMARK VINA RESULT:      -6.9      2.969      8.804
REMARK SMILES O=C1C[C@@H](C(=O)NCc2ccc3c(c2)OCCO3)c2ccccc2N1
REMARK SMILES IDX 6 1 7 2 5 3 4 5 3 6 19 7 2 8 24 9 20 10 1 11 25 12 23 13
REMARK SMILES IDX 21 14 22 15 8 17 9 18 14 19 10 20 13 21 11 22 15 23 12 24
REMARK SMILES IDX 16 25 18 26 17 27
REMARK H PARENT 7 4 25 16
ROOT
ATOM      1  O   UNL     1      97.939 108.425 112.681  1.00  0.00    -0.274 OA
ATOM      2  N   UNL     1      96.121 108.053 111.276  1.00  0.00    -0.351 N 
ATOM      3  C   UNL     1      96.856 107.899 112.438  1.00  0.00     0.228 C 
ATOM      4  H   UNL     1      95.219 107.593 111.191  1.00  0.00     0.163 HD
ENDROOT
BRANCH   3   5
ATOM      5  C   UNL     1      96.169 107.008 113.430  1.00  0.00     0.120 C 
ATOM      6  C   UNL     1      95.468 107.851 114.491  1.00  0.00     0.118 C 
ATOM      7  C   UNL     1      97.138 106.032 114.035  1.00  0.00    -0.011 A 
ATOM      8  C   UNL     1      96.375 108.332 115.609  1.00  0.00     0.225 C 
ATOM      9  C   UNL     1      97.739 106.315 115.267  1.00  0.00     0.045 A 
ATOM     10  C   UNL     1      97.505 104.866 113.350  1.00  0.00     0.007 A 
ATOM     11  O   UNL     1      96.140 109.383 116.207  1.00  0.00    -0.275 OA
ATOM     12  N   UNL     1      97.399 107.482 115.970  1.00  0.00    -0.326 N 
ATOM     13  C   UNL     1      98.703 105.456 115.801  1.00  0.00     0.026 A 
ATOM     14  C   UNL     1      98.455 103.999 113.891  1.00  0.00     0.000 A 
ATOM     15  C   UNL     1      99.055 104.294 115.113  1.00  0.00     0.002 A 
ATOM     16  H   UNL     1      97.948 107.715 116.792  1.00  0.00     0.169 HD
ENDBRANCH   3   5
BRANCH   2  17
ATOM     17  C   UNL     1      96.552 108.880 110.171  1.00  0.00     0.151 C 
BRANCH  17  18
ATOM     18  C   UNL     1      97.137 108.065 109.055  1.00  0.00    -0.025 A 
ATOM     19  C   UNL     1      96.531 108.072 107.798  1.00  0.00     0.056 A 
ATOM     20  C   UNL     1      98.282 107.300 109.275  1.00  0.00     0.009 A 
ATOM     21  C   UNL     1      97.072 107.308 106.763  1.00  0.00     0.161 A 
ATOM     22  C   UNL     1      98.830 106.545 108.237  1.00  0.00     0.051 A 
ATOM     23  O   UNL     1      96.420 107.339 105.557  1.00  0.00    -0.486 OA
ATOM     24  C   UNL     1      98.234 106.562 106.977  1.00  0.00     0.161 A 
ATOM     25  C   UNL     1      96.842 106.278 104.696  1.00  0.00     0.271 C 
ATOM     26  O   UNL     1      98.830 105.819 105.993  1.00  0.00    -0.486 OA
ATOM     27  C   UNL     1      98.355 106.175 104.692  1.00  0.00     0.271 C 
ENDBRANCH  17  18
ENDBRANCH   2  17
TORSDOF 3
ENDMDL
MODEL 7
REMARK VINA RESULT:      -6.9     14.060     16.775
REMARK SMILES O=C1C[C@@H](C(=O)NCc2ccc3c(c2)OCCO3)c2ccccc2N1
REMARK SMILES IDX 6 1 7 2 5 3 4 5 3 6 19 7 2 8 24 9 20 10 1 11 25 12 23 13
REMARK SMILES IDX 21 14 22 15 8 17 9 18 14 19 10 20 13 21 11 22 15 23 12 24
REMARK SMILES IDX 16 25 18 26 17 27
REMARK H PARENT 7 4 25 16
ROOT
ATOM      1  O   UNL     1     103.735  93.822 111.896  1.00  0.00    -0.274 OA
ATOM      2  N   UNL     1     102.200  95.095 113.096  1.00  0.00    -0.351 N 
ATOM      3  C   UNL     1     103.461  94.771 112.626  1.00  0.00     0.228 C 
ATOM      4  H   UNL     1     102.080  95.923 113.674  1.00  0.00     0.163 HD
ENDROOT
BRANCH   3   5
ATOM      5  C   UNL     1     104.506  95.740 113.091  1.00  0.00     0.120 C 
ATOM      6  C   UNL     1     105.239  96.333 111.891  1.00  0.00     0.118 C 
ATOM      7  C   UNL     1     105.450  95.086 114.061  1.00  0.00    -0.011 A 
ATOM      8  C   UNL     1     106.350  95.458 111.340  1.00  0.00     0.225 C 
ATOM      9  C   UNL     1     106.667  94.563 113.608  1.00  0.00     0.045 A 
ATOM     10  C   UNL     1     105.099  94.928 115.408  1.00  0.00     0.007 A 
ATOM     11  O   UNL     1     106.661  95.505 110.149  1.00  0.00    -0.275 OA
ATOM     12  N   UNL     1     107.039  94.696 112.261  1.00  0.00    -0.326 N 
ATOM     13  C   UNL     1     107.515  93.880 114.484  1.00  0.00     0.026 A 
ATOM     14  C   UNL     1     105.955  94.261 116.286  1.00  0.00     0.000 A 
ATOM     15  C   UNL     1     107.160  93.736 115.825  1.00  0.00     0.002 A 
ATOM     16  H   UNL     1     107.864  94.195 111.946  1.00  0.00     0.169 HD
ENDBRANCH   3   5
BRANCH   2  17
ATOM     17  C   UNL     1     101.015  94.332 112.774  1.00  0.00     0.151 C 
BRANCH  17  18
ATOM     18  C   UNL     1     100.615  94.496 111.337  1.00  0.00    -0.025 A 
ATOM     19  C   UNL     1     100.604  93.389 110.487  1.00  0.00     0.056 A 
ATOM     20  C   UNL     1     100.260  95.754 110.851  1.00  0.00     0.009 A 
ATOM     21  C   UNL     1     100.240  93.545 109.149  1.00  0.00     0.161 A 
ATOM     22  C   UNL     1      99.883  95.908 109.516  1.00  0.00     0.051 A 
ATOM     23  O   UNL     1     100.268  92.425 108.360  1.00  0.00    -0.486 OA
ATOM     24  C   UNL     1      99.858  94.800 108.669  1.00  0.00     0.161 A 
ATOM     25  C   UNL     1     100.220  92.752 106.968  1.00  0.00     0.271 C 
ATOM     26  O   UNL     1      99.458  95.010 107.376  1.00  0.00    -0.486 OA
ATOM     27  C   UNL     1      99.141  93.785 106.710  1.00  0.00     0.271 C 
ENDBRANCH  17  18
ENDBRANCH   2  17
TORSDOF 3
ENDMDL
MODEL 8
REMARK VINA RESULT:      -6.9     14.197     16.026
REMARK SMILES O=C1C[C@@H](C(=O)NCc2ccc3c(c2)OCCO3)c2ccccc2N1
REMARK SMILES IDX 6 1 7 2 5 3 4 5 3 6 19 7 2 8 24 9 20 10 1 11 25 12 23 13
REMARK SMILES IDX 21 14 22 15 8 17 9 18 14 19 10 20 13 21 11 22 15 23 12 24
REMARK SMILES IDX 16 25 18 26 17 27
REMARK H PARENT 7 4 25 16
ROOT
ATOM      1  O   UNL     1     103.741  94.696 111.952  1.00  0.00    -0.274 OA
ATOM      2  N   UNL     1     102.985  96.886 112.172  1.00  0.00    -0.351 N 
ATOM      3  C   UNL     1     103.933  95.880 112.220  1.00  0.00     0.228 C 
ATOM      4  H   UNL     1     103.258  97.841 112.387  1.00  0.00     0.163 HD
ENDROOT
BRANCH   3   5
ATOM      5  C   UNL     1     105.283  96.391 112.627  1.00  0.00     0.120 C 
ATOM      6  C   UNL     1     106.185  96.515 111.403  1.00  0.00     0.118 C 
ATOM      7  C   UNL     1     105.890  95.516 113.688  1.00  0.00    -0.011 A 
ATOM      8  C   UNL     1     106.847  95.217 110.978  1.00  0.00     0.225 C 
ATOM      9  C   UNL     1     106.792  94.507 113.331  1.00  0.00     0.045 A 
ATOM     10  C   UNL     1     105.513  95.651 115.031  1.00  0.00     0.007 A 
ATOM     11  O   UNL     1     107.144  95.013 109.800  1.00  0.00    -0.275 OA
ATOM     12  N   UNL     1     107.177  94.342 111.992  1.00  0.00    -0.326 N 
ATOM     13  C   UNL     1     107.299  93.634 114.298  1.00  0.00     0.026 A 
ATOM     14  C   UNL     1     106.034  94.791 115.999  1.00  0.00     0.000 A 
ATOM     15  C   UNL     1     106.923  93.783 115.633  1.00  0.00     0.002 A 
ATOM     16  H   UNL     1     107.729  93.523 111.756  1.00  0.00     0.169 HD
ENDBRANCH   3   5
BRANCH   2  17
ATOM     17  C   UNL     1     101.610  96.660 111.786  1.00  0.00     0.151 C 
BRANCH  17  18
ATOM     18  C   UNL     1     100.766  96.219 112.946  1.00  0.00    -0.025 A 
ATOM     19  C   UNL     1     100.022  95.042 112.856  1.00  0.00     0.056 A 
ATOM     20  C   UNL     1     100.724  96.986 114.109  1.00  0.00     0.009 A 
ATOM     21  C   UNL     1      99.232  94.637 113.932  1.00  0.00     0.161 A 
ATOM     22  C   UNL     1      99.944  96.575 115.191  1.00  0.00     0.051 A 
ATOM     23  O   UNL     1      98.508  93.484 113.777  1.00  0.00    -0.486 OA
ATOM     24  C   UNL     1      99.210  95.392 115.108  1.00  0.00     0.161 A 
ATOM     25  C   UNL     1      97.492  93.352 114.776  1.00  0.00     0.271 C 
ATOM     26  O   UNL     1      98.482  95.029 116.210  1.00  0.00    -0.486 OA
ATOM     27  C   UNL     1      98.061  93.664 116.146  1.00  0.00     0.271 C 
ENDBRANCH  17  18
ENDBRANCH   2  17
TORSDOF 3
ENDMDL
MODEL 9
REMARK VINA RESULT:      -6.7      2.227      8.904
REMARK SMILES O=C1C[C@@H](C(=O)NCc2ccc3c(c2)OCCO3)c2ccccc2N1
REMARK SMILES IDX 6 1 7 2 5 3 4 5 3 6 19 7 2 8 24 9 20 10 1 11 25 12 23 13
REMARK SMILES IDX 21 14 22 15 8 17 9 18 14 19 10 20 13 21 11 22 15 23 12 24
REMARK SMILES IDX 16 25 18 26 17 27
REMARK H PARENT 7 4 25 16
ROOT
ATOM      1  O   UNL     1      98.414 108.804 110.944  1.00  0.00    -0.274 OA
ATOM      2  N   UNL     1      97.535 107.089 109.639  1.00  0.00    -0.351 N 
ATOM      3  C   UNL     1      97.574 107.933 110.736  1.00  0.00     0.228 C 
ATOM      4  H   UNL     1      96.775 106.420 109.551  1.00  0.00     0.163 HD
ENDROOT
BRANCH   3   5
ATOM      5  C   UNL     1      96.434 107.690 111.679  1.00  0.00     0.120 C 
ATOM      6  C   UNL     1      95.549 108.931 111.758  1.00  0.00     0.118 C 
ATOM      7  C   UNL     1      96.937 107.269 113.031  1.00  0.00    -0.011 A 
ATOM      8  C   UNL     1      96.056 110.002 112.707  1.00  0.00     0.225 C 
ATOM      9  C   UNL     1      97.089 108.219 114.048  1.00  0.00     0.045 A 
ATOM     10  C   UNL     1      97.324 105.944 113.273  1.00  0.00     0.007 A 
ATOM     11  O   UNL     1      95.802 111.192 112.512  1.00  0.00    -0.275 OA
ATOM     12  N   UNL     1      96.720 109.556 113.830  1.00  0.00    -0.326 N 
ATOM     13  C   UNL     1      97.634 107.856 115.283  1.00  0.00     0.026 A 
ATOM     14  C   UNL     1      97.852 105.578 114.512  1.00  0.00     0.000 A 
ATOM     15  C   UNL     1      98.008 106.532 115.514  1.00  0.00     0.002 A 
ATOM     16  H   UNL     1      96.964 110.236 114.544  1.00  0.00     0.169 HD
ENDBRANCH   3   5
BRANCH   2  17
ATOM     17  C   UNL     1      98.507 107.134 108.571  1.00  0.00     0.151 C 
BRANCH  17  18
ATOM     18  C   UNL     1      97.857 107.140 107.218  1.00  0.00    -0.025 A 
ATOM     19  C   UNL     1      98.559 106.675 106.106  1.00  0.00     0.056 A 
ATOM     20  C   UNL     1      96.553 107.614 107.074  1.00  0.00     0.009 A 
ATOM     21  C   UNL     1      97.956 106.689 104.848  1.00  0.00     0.161 A 
ATOM     22  C   UNL     1      95.944 107.616 105.818  1.00  0.00     0.051 A 
ATOM     23  O   UNL     1      98.703 106.239 103.792  1.00  0.00    -0.486 OA
ATOM     24  C   UNL     1      96.640 107.138 104.708  1.00  0.00     0.161 A 
ATOM     25  C   UNL     1      98.131 106.614 102.535  1.00  0.00     0.271 C 
ATOM     26  O   UNL     1      95.982 107.145 103.507  1.00  0.00    -0.486 OA
ATOM     27  C   UNL     1      96.642 106.333 102.532  1.00  0.00     0.271 C 
ENDBRANCH  17  18
ENDBRANCH   2  17
TORSDOF 3
ENDMDL
MODEL 10
REMARK VINA RESULT:      -6.7     14.643     16.900
REMARK SMILES O=C1C[C@@H](C(=O)NCc2ccc3c(c2)OCCO3)c2ccccc2N1
REMARK SMILES IDX 6 1 7 2 5 3 4 5 3 6 19 7 2 8 24 9 20 10 1 11 25 12 23 13
REMARK SMILES IDX 21 14 22 15 8 17 9 18 14 19 10 20 13 21 11 22 15 23 12 24
REMARK SMILES IDX 16 25 18 26 17 27
REMARK H PARENT 7 4 25 16
ROOT
ATOM      1  O   UNL     1     104.544  91.937 115.312  1.00  0.00    -0.274 OA
ATOM      2  N   UNL     1     104.139  93.021 113.293  1.00  0.00    -0.351 N 
ATOM      3  C   UNL     1     104.885  92.703 114.415  1.00  0.00     0.228 C 
ATOM      4  H   UNL     1     104.530  93.648 112.594  1.00  0.00     0.163 HD
ENDROOT
BRANCH   3   5
ATOM      5  C   UNL     1     106.216  93.393 114.425  1.00  0.00     0.120 C 
ATOM      6  C   UNL     1     106.325  94.300 115.647  1.00  0.00     0.118 C 
ATOM      7  C   UNL     1     106.441  94.145 113.143  1.00  0.00    -0.011 A 
ATOM      8  C   UNL     1     105.666  95.658 115.481  1.00  0.00     0.225 C 
ATOM      9  C   UNL     1     106.150  95.513 113.074  1.00  0.00     0.045 A 
ATOM     10  C   UNL     1     106.874  93.481 111.988  1.00  0.00     0.007 A 
ATOM     11  O   UNL     1     105.208  96.262 116.451  1.00  0.00    -0.275 OA
ATOM     12  N   UNL     1     105.703  96.201 114.214  1.00  0.00    -0.326 N 
ATOM     13  C   UNL     1     106.276  96.205 111.867  1.00  0.00     0.026 A 
ATOM     14  C   UNL     1     107.016  94.176 110.786  1.00  0.00     0.000 A 
ATOM     15  C   UNL     1     106.716  95.535 110.725  1.00  0.00     0.002 A 
ATOM     16  H   UNL     1     105.383  97.156 114.093  1.00  0.00     0.169 HD
ENDBRANCH   3   5
BRANCH   2  17
ATOM     17  C   UNL     1     102.828  92.471 113.032  1.00  0.00     0.151 C 
BRANCH  17  18
ATOM     18  C   UNL     1     101.979  93.405 112.220  1.00  0.00    -0.025 A 
ATOM     19  C   UNL     1     100.924  92.901 111.459  1.00  0.00     0.056 A 
ATOM     20  C   UNL     1     102.247  94.774 112.225  1.00  0.00     0.009 A 
ATOM     21  C   UNL     1     100.140  93.770 110.698  1.00  0.00     0.161 A 
ATOM     22  C   UNL     1     101.455  95.645 111.475  1.00  0.00     0.051 A 
ATOM     23  O   UNL     1      99.132  93.213 109.955  1.00  0.00    -0.486 OA
ATOM     24  C   UNL     1     100.392  95.144 110.724  1.00  0.00     0.161 A 
ATOM     25  C   UNL     1      98.631  94.122 108.971  1.00  0.00     0.271 C 
ATOM     26  O   UNL     1      99.638  96.050 110.027  1.00  0.00    -0.486 OA
ATOM     27  C   UNL     1      98.399  95.487 109.587  1.00  0.00     0.271 C 
ENDBRANCH  17  18
ENDBRANCH   2  17
TORSDOF 3
ENDMDL
MODEL 11
REMARK VINA RESULT:      -6.6     15.094     16.898
REMARK SMILES O=C1C[C@@H](C(=O)NCc2ccc3c(c2)OCCO3)c2ccccc2N1
REMARK SMILES IDX 6 1 7 2 5 3 4 5 3 6 19 7 2 8 24 9 20 10 1 11 25 12 23 13
REMARK SMILES IDX 21 14 22 15 8 17 9 18 14 19 10 20 13 21 11 22 15 23 12 24
REMARK SMILES IDX 16 25 18 26 17 27
REMARK H PARENT 7 4 25 16
ROOT
ATOM      1  O   UNL     1     103.025  97.106 112.610  1.00  0.00    -0.274 OA
ATOM      2  N   UNL     1     103.796  94.934 112.286  1.00  0.00    -0.351 N 
ATOM      3  C   UNL     1     103.926  96.271 112.618  1.00  0.00     0.228 C 
ATOM      4  H   UNL     1     104.603  94.321 112.355  1.00  0.00     0.163 HD
ENDROOT
BRANCH   3   5
ATOM      5  C   UNL     1     105.326  96.620 113.028  1.00  0.00     0.120 C 
ATOM      6  C   UNL     1     106.196  96.827 111.792  1.00  0.00     0.118 C 
ATOM      7  C   UNL     1     105.891  95.574 113.947  1.00  0.00    -0.011 A 
ATOM      8  C   UNL     1     106.735  95.544 111.184  1.00  0.00     0.225 C 
ATOM      9  C   UNL     1     106.695  94.550 113.432  1.00  0.00     0.045 A 
ATOM     10  C   UNL     1     105.570  95.567 115.311  1.00  0.00     0.007 A 
ATOM     11  O   UNL     1     106.977  95.469 109.978  1.00  0.00    -0.275 OA
ATOM     12  N   UNL     1     107.023  94.525 112.067  1.00  0.00    -0.326 N 
ATOM     13  C   UNL     1     107.158  93.526 114.262  1.00  0.00     0.026 A 
ATOM     14  C   UNL     1     106.047  94.554 116.144  1.00  0.00     0.000 A 
ATOM     15  C   UNL     1     106.838  93.533 115.620  1.00  0.00     0.002 A 
ATOM     16  H   UNL     1     107.498  93.702 111.710  1.00  0.00     0.169 HD
ENDBRANCH   3   5
BRANCH   2  17
ATOM     17  C   UNL     1     102.543  94.338 111.878  1.00  0.00     0.151 C 
BRANCH  17  18
ATOM     18  C   UNL     1     101.811  93.723 113.035  1.00  0.00    -0.025 A 
ATOM     19  C   UNL     1     100.438  93.926 113.176  1.00  0.00     0.056 A 
ATOM     20  C   UNL     1     102.504  92.954 113.969  1.00  0.00     0.009 A 
ATOM     21  C   UNL     1      99.760  93.360 114.256  1.00  0.00     0.161 A 
ATOM     22  C   UNL     1     101.824  92.377 115.043  1.00  0.00     0.051 A 
ATOM     23  O   UNL     1      98.416  93.611 114.352  1.00  0.00    -0.486 OA
ATOM     24  C   UNL     1     100.449  92.567 115.177  1.00  0.00     0.161 A 
ATOM     25  C   UNL     1      97.903  93.287 115.647  1.00  0.00     0.271 C 
ATOM     26  O   UNL     1      99.835  91.957 116.239  1.00  0.00    -0.486 OA
ATOM     27  C   UNL     1      98.413  91.929 116.088  1.00  0.00     0.271 C 
ENDBRANCH  17  18
ENDBRANCH   2  17
TORSDOF 3
ENDMDL
MODEL 12
REMARK VINA RESULT:      -6.5     14.236     16.875
REMARK SMILES O=C1C[C@@H](C(=O)NCc2ccc3c(c2)OCCO3)c2ccccc2N1
REMARK SMILES IDX 6 1 7 2 5 3 4 5 3 6 19 7 2 8 24 9 20 10 1 11 25 12 23 13
REMARK SMILES IDX 21 14 22 15 8 17 9 18 14 19 10 20 13 21 11 22 15 23 12 24
REMARK SMILES IDX 16 25 18 26 17 27
REMARK H PARENT 7 4 25 16
ROOT
ATOM      1  O   UNL     1     102.134  94.238 113.351  1.00  0.00    -0.274 OA
ATOM      2  N   UNL     1     101.967  92.425 111.900  1.00  0.00    -0.351 N 
ATOM      3  C   UNL     1     102.635  93.293 112.746  1.00  0.00     0.228 C 
ATOM      4  H   UNL     1     102.474  91.656 111.472  1.00  0.00     0.163 HD
ENDROOT
BRANCH   3   5
ATOM      5  C   UNL     1     104.088  92.947 112.882  1.00  0.00     0.120 C 
ATOM      6  C   UNL     1     104.333  92.230 114.206  1.00  0.00     0.118 C 
ATOM      7  C   UNL     1     104.947  94.172 112.736  1.00  0.00    -0.011 A 
ATOM      8  C   UNL     1     104.481  93.155 115.401  1.00  0.00     0.225 C 
ATOM      9  C   UNL     1     105.386  94.857 113.875  1.00  0.00     0.045 A 
ATOM     10  C   UNL     1     105.260  94.683 111.470  1.00  0.00     0.007 A 
ATOM     11  O   UNL     1     104.162  92.784 116.531  1.00  0.00    -0.275 OA
ATOM     12  N   UNL     1     105.077  94.374 115.156  1.00  0.00    -0.326 N 
ATOM     13  C   UNL     1     106.115  96.043 113.752  1.00  0.00     0.026 A 
ATOM     14  C   UNL     1     106.003  95.858 111.347  1.00  0.00     0.000 A 
ATOM     15  C   UNL     1     106.428  96.538 112.486  1.00  0.00     0.002 A 
ATOM     16  H   UNL     1     105.302  94.964 115.951  1.00  0.00     0.169 HD
ENDBRANCH   3   5
BRANCH   2  17
ATOM     17  C   UNL     1     100.553  92.528 111.618  1.00  0.00     0.151 C 
BRANCH  17  18
ATOM     18  C   UNL     1     100.283  93.337 110.383  1.00  0.00    -0.025 A 
ATOM     19  C   UNL     1     100.307  92.723 109.130  1.00  0.00     0.056 A 
ATOM     20  C   UNL     1     100.014  94.701 110.488  1.00  0.00     0.009 A 
ATOM     21  C   UNL     1     100.065  93.478 107.983  1.00  0.00     0.161 A 
ATOM     22  C   UNL     1      99.759  95.455 109.342  1.00  0.00     0.051 A 
ATOM     23  O   UNL     1     100.122  92.823 106.780  1.00  0.00    -0.486 OA
ATOM     24  C   UNL     1      99.768  94.840 108.090  1.00  0.00     0.161 A 
ATOM     25  C   UNL     1     100.204  93.734 105.680  1.00  0.00     0.271 C 
ATOM     26  O   UNL     1      99.489  95.627 107.005  1.00  0.00    -0.486 OA
ATOM     27  C   UNL     1      99.188  94.847 105.844  1.00  0.00     0.271 C 
ENDBRANCH  17  18
ENDBRANCH   2  17
TORSDOF 3
ENDMDL
MODEL 13
REMARK VINA RESULT:      -6.5     14.569     16.302
REMARK SMILES O=C1C[C@@H](C(=O)NCc2ccc3c(c2)OCCO3)c2ccccc2N1
REMARK SMILES IDX 6 1 7 2 5 3 4 5 3 6 19 7 2 8 24 9 20 10 1 11 25 12 23 13
REMARK SMILES IDX 21 14 22 15 8 17 9 18 14 19 10 20 13 21 11 22 15 23 12 24
REMARK SMILES IDX 16 25 18 26 17 27
REMARK H PARENT 7 4 25 16
ROOT
ATOM      1  O   UNL     1     107.878  93.338 114.492  1.00  0.00    -0.274 OA
ATOM      2  N   UNL     1     105.802  94.379 114.636  1.00  0.00    -0.351 N 
ATOM      3  C   UNL     1     106.764  93.584 114.038  1.00  0.00     0.228 C 
ATOM      4  H   UNL     1     104.898  94.494 114.185  1.00  0.00     0.163 HD
ENDROOT
BRANCH   3   5
ATOM      5  C   UNL     1     106.295  93.008 112.735  1.00  0.00     0.120 C 
ATOM      6  C   UNL     1     106.884  93.799 111.571  1.00  0.00     0.118 C 
ATOM      7  C   UNL     1     104.794  92.959 112.681  1.00  0.00    -0.011 A 
ATOM      8  C   UNL     1     106.131  95.074 111.235  1.00  0.00     0.225 C 
ATOM      9  C   UNL     1     104.082  93.989 112.054  1.00  0.00     0.045 A 
ATOM     10  C   UNL     1     104.086  91.926 113.311  1.00  0.00     0.007 A 
ATOM     11  O   UNL     1     106.711  96.040 110.738  1.00  0.00    -0.275 OA
ATOM     12  N   UNL     1     104.765  95.042 111.426  1.00  0.00    -0.326 N 
ATOM     13  C   UNL     1     102.685  93.997 112.069  1.00  0.00     0.026 A 
ATOM     14  C   UNL     1     102.690  91.925 113.310  1.00  0.00     0.000 A 
ATOM     15  C   UNL     1     101.991  92.960 112.693  1.00  0.00     0.002 A 
ATOM     16  H   UNL     1     104.218  95.831 111.097  1.00  0.00     0.169 HD
ENDBRANCH   3   5
BRANCH   2  17
ATOM     17  C   UNL     1     105.996  95.033 115.910  1.00  0.00     0.151 C 
BRANCH  17  18
ATOM     18  C   UNL     1     104.938  96.062 116.180  1.00  0.00    -0.025 A 
ATOM     19  C   UNL     1     103.695  95.963 115.554  1.00  0.00     0.056 A 
ATOM     20  C   UNL     1     105.198  97.118 117.053  1.00  0.00     0.009 A 
ATOM     21  C   UNL     1     102.715  96.925 115.800  1.00  0.00     0.161 A 
ATOM     22  C   UNL     1     104.214  98.073 117.310  1.00  0.00     0.051 A 
ATOM     23  O   UNL     1     101.522  96.784 115.139  1.00  0.00    -0.486 OA
ATOM     24  C   UNL     1     102.966  97.967 116.695  1.00  0.00     0.161 A 
ATOM     25  C   UNL     1     100.740  97.981 115.191  1.00  0.00     0.271 C 
ATOM     26  O   UNL     1     102.034  98.922 117.004  1.00  0.00    -0.486 OA
ATOM     27  C   UNL     1     100.718  98.532 116.603  1.00  0.00     0.271 C 
ENDBRANCH  17  18
ENDBRANCH   2  17
TORSDOF 3
ENDMDL
MODEL 14
REMARK VINA RESULT:      -6.4     13.114     14.980
REMARK SMILES O=C1C[C@@H](C(=O)NCc2ccc3c(c2)OCCO3)c2ccccc2N1
REMARK SMILES IDX 6 1 7 2 5 3 4 5 3 6 19 7 2 8 24 9 20 10 1 11 25 12 23 13
REMARK SMILES IDX 21 14 22 15 8 17 9 18 14 19 10 20 13 21 11 22 15 23 12 24
REMARK SMILES IDX 16 25 18 26 17 27
REMARK H PARENT 7 4 25 16
ROOT
ATOM      1  O   UNL     1     103.528  97.433 112.115  1.00  0.00    -0.274 OA
ATOM      2  N   UNL     1     103.305  96.200 114.076  1.00  0.00    -0.351 N 
ATOM      3  C   UNL     1     104.010  96.891 113.107  1.00  0.00     0.228 C 
ATOM      4  H   UNL     1     103.801  95.813 114.875  1.00  0.00     0.163 HD
ENDROOT
BRANCH   3   5
ATOM      5  C   UNL     1     105.480  96.940 113.401  1.00  0.00     0.120 C 
ATOM      6  C   UNL     1     106.271  97.023 112.098  1.00  0.00     0.118 C 
ATOM      7  C   UNL     1     105.898  95.766 114.240  1.00  0.00    -0.011 A 
ATOM      8  C   UNL     1     106.491  95.686 111.413  1.00  0.00     0.225 C 
ATOM      9  C   UNL     1     106.436  94.626 113.631  1.00  0.00     0.045 A 
ATOM     10  C   UNL     1     105.693  95.765 115.627  1.00  0.00     0.007 A 
ATOM     11  O   UNL     1     106.615  95.615 110.190  1.00  0.00    -0.275 OA
ATOM     12  N   UNL     1     106.641  94.595 112.243  1.00  0.00    -0.326 N 
ATOM     13  C   UNL     1     106.752  93.497 114.391  1.00  0.00     0.026 A 
ATOM     14  C   UNL     1     106.025  94.644 116.388  1.00  0.00     0.000 A 
ATOM     15  C   UNL     1     106.551  93.511 115.772  1.00  0.00     0.002 A 
ATOM     16  H   UNL     1     106.912  93.710 111.825  1.00  0.00     0.169 HD
ENDBRANCH   3   5
BRANCH   2  17
ATOM     17  C   UNL     1     101.870  96.027 114.039  1.00  0.00     0.151 C 
BRANCH  17  18
ATOM     18  C   UNL     1     101.156  97.097 114.813  1.00  0.00    -0.025 A 
ATOM     19  C   UNL     1      99.804  97.344 114.572  1.00  0.00     0.056 A 
ATOM     20  C   UNL     1     101.844  97.846 115.767  1.00  0.00     0.009 A 
ATOM     21  C   UNL     1      99.143  98.345 115.286  1.00  0.00     0.161 A 
ATOM     22  C   UNL     1     101.182  98.837 116.491  1.00  0.00     0.051 A 
ATOM     23  O   UNL     1      97.821  98.554 114.991  1.00  0.00    -0.486 OA
ATOM     24  C   UNL     1      99.827  99.076 116.262  1.00  0.00     0.161 A 
ATOM     25  C   UNL     1      97.349  99.799 115.514  1.00  0.00     0.271 C 
ATOM     26  O   UNL     1      99.226 100.047 117.018  1.00  0.00    -0.486 OA
ATOM     27  C   UNL     1      97.799  99.969 116.951  1.00  0.00     0.271 C 
ENDBRANCH  17  18
ENDBRANCH   2  17
TORSDOF 3
ENDMDL
MODEL 15
REMARK VINA RESULT:      -6.4     14.117     16.451
REMARK SMILES O=C1C[C@@H](C(=O)NCc2ccc3c(c2)OCCO3)c2ccccc2N1
REMARK SMILES IDX 6 1 7 2 5 3 4 5 3 6 19 7 2 8 24 9 20 10 1 11 25 12 23 13
REMARK SMILES IDX 21 14 22 15 8 17 9 18 14 19 10 20 13 21 11 22 15 23 12 24
REMARK SMILES IDX 16 25 18 26 17 27
REMARK H PARENT 7 4 25 16
ROOT
ATOM      1  O   UNL     1     103.892  95.646 112.554  1.00  0.00    -0.274 OA
ATOM      2  N   UNL     1     101.801  94.630 112.452  1.00  0.00    -0.351 N 
ATOM      3  C   UNL     1     103.184  94.644 112.489  1.00  0.00     0.228 C 
ATOM      4  H   UNL     1     101.311  93.740 112.428  1.00  0.00     0.163 HD
ENDROOT
BRANCH   3   5
ATOM      5  C   UNL     1     103.767  93.263 112.463  1.00  0.00     0.120 C 
ATOM      6  C   UNL     1     102.978  92.345 113.393  1.00  0.00     0.118 C 
ATOM      7  C   UNL     1     105.230  93.291 112.807  1.00  0.00    -0.011 A 
ATOM      8  C   UNL     1     103.376  92.444 114.855  1.00  0.00     0.225 C 
ATOM      9  C   UNL     1     105.645  93.039 114.120  1.00  0.00     0.045 A 
ATOM     10  C   UNL     1     106.187  93.636 111.843  1.00  0.00     0.007 A 
ATOM     11  O   UNL     1     102.560  92.215 115.749  1.00  0.00    -0.275 OA
ATOM     12  N   UNL     1     104.706  92.704 115.108  1.00  0.00    -0.326 N 
ATOM     13  C   UNL     1     106.994  93.144 114.470  1.00  0.00     0.026 A 
ATOM     14  C   UNL     1     107.536  93.723 112.189  1.00  0.00     0.000 A 
ATOM     15  C   UNL     1     107.939  93.480 113.500  1.00  0.00     0.002 A 
ATOM     16  H   UNL     1     105.029  92.654 116.069  1.00  0.00     0.169 HD
ENDBRANCH   3   5
BRANCH   2  17
ATOM     17  C   UNL     1     100.996  95.830 112.489  1.00  0.00     0.151 C 
BRANCH  17  18
ATOM     18  C   UNL     1      99.945  95.835 111.417  1.00  0.00    -0.025 A 
ATOM     19  C   UNL     1     100.294  95.533 110.100  1.00  0.00     0.056 A 
ATOM     20  C   UNL     1      98.624  96.144 111.737  1.00  0.00     0.009 A 
ATOM     21  C   UNL     1      99.318  95.546 109.104  1.00  0.00     0.161 A 
ATOM     22  C   UNL     1      97.644  96.145 110.743  1.00  0.00     0.051 A 
ATOM     23  O   UNL     1      99.725  95.261 107.826  1.00  0.00    -0.486 OA
ATOM     24  C   UNL     1      97.989  95.830 109.429  1.00  0.00     0.161 A 
ATOM     25  C   UNL     1      98.742  95.636 106.857  1.00  0.00     0.271 C 
ATOM     26  O   UNL     1      96.981  95.825 108.502  1.00  0.00    -0.486 OA
ATOM     27  C   UNL     1      97.369  95.166 107.294  1.00  0.00     0.271 C 
ENDBRANCH  17  18
ENDBRANCH   2  17
TORSDOF 3
ENDMDL
