MODEL 1
REMARK VINA RESULT:      -8.0      0.000      0.000
REMARK SMILES O=C(CC[C@H]1Cc2ccccc2NC1=O)NNC(=O)c1ccccc1Cl
REMARK SMILES IDX 1 1 16 2 2 3 17 5 18 6 19 7 20 9 25 10 24 11 21 12 23 13
REMARK SMILES IDX 22 14 26 15 3 16 4 17 5 18 6 19 14 20 7 21 15 22 13 23 12 24
REMARK SMILES IDX 8 25 11 26 9 27 10 28
REMARK H PARENT 16 4 17 8 13 29
ROOT
ATOM      1  O   UNL     1      97.787 107.409 108.772  1.00  0.00    -0.273 OA
ATOM      2  N   UNL     1      96.163 108.727 107.769  1.00  0.00    -0.267 N 
ATOM      3  C   UNL     1      96.832 108.177 108.847  1.00  0.00     0.238 C 
ATOM      4  H   UNL     1      95.373 109.359 107.851  1.00  0.00     0.191 HD
ENDROOT
BRANCH   2   5
ATOM      5  N   UNL     1      96.576 108.411 106.497  1.00  0.00    -0.263 N 
ATOM      6  C   UNL     1      96.170 107.211 105.945  1.00  0.00     0.271 C 
ATOM      7  O   UNL     1      95.455 106.385 106.507  1.00  0.00    -0.267 OA
ATOM      8  H   UNL     1      97.176 109.083 106.028  1.00  0.00     0.191 HD
BRANCH   6   9
ATOM      9  C   UNL     1      96.674 106.928 104.576  1.00  0.00     0.060 A 
ATOM     10  C   UNL     1      98.033 106.746 104.313  1.00  0.00     0.053 A 
ATOM     11  C   UNL     1      98.462 106.481 103.013  1.00  0.00     0.021 A 
ATOM     12  C   UNL     1      95.746 106.844 103.538  1.00  0.00     0.015 A 
ATOM     13  C   UNL     1      97.533 106.398 101.976  1.00  0.00     0.002 A 
ATOM     14  C   UNL     1      96.175 106.579 102.238  1.00  0.00     0.001 A 
ATOM     15  Cl  UNL     1      99.214 106.841 105.569  1.00  0.00    -0.083 Cl
ENDBRANCH   6   9
ENDBRANCH   2   5
BRANCH   3  16
ATOM     16  C   UNL     1      96.214 108.616 110.165  1.00  0.00     0.103 C 
BRANCH  16  17
ATOM     17  C   UNL     1      96.922 108.054 111.393  1.00  0.00     0.024 C 
BRANCH  17  18
ATOM     18  C   UNL     1      95.978 107.890 112.586  1.00  0.00     0.084 C 
ATOM     19  C   UNL     1      95.806 106.421 112.983  1.00  0.00     0.051 C 
ATOM     20  C   UNL     1      96.483 108.746 113.741  1.00  0.00     0.227 C 
ATOM     21  C   UNL     1      96.991 105.904 113.749  1.00  0.00    -0.024 A 
ATOM     22  O   UNL     1      96.153 109.928 113.847  1.00  0.00    -0.274 OA
ATOM     23  N   UNL     1      97.397 108.150 114.587  1.00  0.00    -0.326 N 
ATOM     24  C   UNL     1      97.723 106.783 114.556  1.00  0.00     0.044 A 
ATOM     25  C   UNL     1      97.315 104.544 113.745  1.00  0.00     0.006 A 
ATOM     26  C   UNL     1      98.766 106.307 115.354  1.00  0.00     0.026 A 
ATOM     27  C   UNL     1      98.368 104.071 114.529  1.00  0.00     0.000 A 
ATOM     28  C   UNL     1      99.091 104.951 115.333  1.00  0.00     0.002 A 
ATOM     29  H   UNL     1      97.856 108.729 115.284  1.00  0.00     0.169 HD
ENDBRANCH  17  18
ENDBRANCH  16  17
ENDBRANCH   3  16
TORSDOF 5
ENDMDL
MODEL 2
REMARK VINA RESULT:      -7.8      2.458      9.407
REMARK SMILES O=C(CC[C@H]1Cc2ccccc2NC1=O)NNC(=O)c1ccccc1Cl
REMARK SMILES IDX 1 1 16 2 2 3 17 5 18 6 19 7 20 9 25 10 24 11 21 12 23 13
REMARK SMILES IDX 22 14 26 15 3 16 4 17 5 18 6 19 14 20 7 21 15 22 13 23 12 24
REMARK SMILES IDX 8 25 11 26 9 27 10 28
REMARK H PARENT 16 4 17 8 13 29
ROOT
ATOM      1  O   UNL     1      98.091 107.489 109.494  1.00  0.00    -0.273 OA
ATOM      2  N   UNL     1      96.347 108.557 110.589  1.00  0.00    -0.267 N 
ATOM      3  C   UNL     1      96.988 108.028 109.483  1.00  0.00     0.238 C 
ATOM      4  H   UNL     1      95.436 109.002 110.560  1.00  0.00     0.191 HD
ENDROOT
BRANCH   2   5
ATOM      5  N   UNL     1      96.967 108.489 111.813  1.00  0.00    -0.263 N 
ATOM      6  C   UNL     1      96.452 107.639 112.773  1.00  0.00     0.271 C 
ATOM      7  O   UNL     1      95.465 106.923 112.620  1.00  0.00    -0.267 OA
ATOM      8  H   UNL     1      97.777 109.085 111.953  1.00  0.00     0.191 HD
BRANCH   6   9
ATOM      9  C   UNL     1      97.160 107.636 114.079  1.00  0.00     0.060 A 
ATOM     10  C   UNL     1      97.775 106.489 114.582  1.00  0.00     0.053 A 
ATOM     11  C   UNL     1      98.430 106.532 115.813  1.00  0.00     0.021 A 
ATOM     12  C   UNL     1      97.199 108.825 114.808  1.00  0.00     0.015 A 
ATOM     13  C   UNL     1      98.469 107.720 116.541  1.00  0.00     0.002 A 
ATOM     14  C   UNL     1      97.854 108.867 116.038  1.00  0.00     0.001 A 
ATOM     15  Cl  UNL     1      97.750 104.997 113.711  1.00  0.00    -0.083 Cl
ENDBRANCH   6   9
ENDBRANCH   2   5
BRANCH   3  16
ATOM     16  C   UNL     1      96.166 108.224 108.220  1.00  0.00     0.103 C 
BRANCH  16  17
ATOM     17  C   UNL     1      96.949 107.984 106.933  1.00  0.00     0.024 C 
BRANCH  17  18
ATOM     18  C   UNL     1      97.251 106.502 106.702  1.00  0.00     0.084 C 
ATOM     19  C   UNL     1      96.235 105.850 105.760  1.00  0.00     0.051 C 
ATOM     20  C   UNL     1      98.682 106.359 106.197  1.00  0.00     0.227 C 
ATOM     21  C   UNL     1      96.491 106.207 104.323  1.00  0.00    -0.024 A 
ATOM     22  O   UNL     1      99.626 106.265 106.982  1.00  0.00    -0.274 OA
ATOM     23  N   UNL     1      98.857 106.444 104.830  1.00  0.00    -0.326 N 
ATOM     24  C   UNL     1      97.802 106.455 103.901  1.00  0.00     0.044 A 
ATOM     25  C   UNL     1      95.456 106.202 103.383  1.00  0.00     0.006 A 
ATOM     26  C   UNL     1      98.078 106.692 102.551  1.00  0.00     0.026 A 
ATOM     27  C   UNL     1      95.729 106.456 102.037  1.00  0.00     0.000 A 
ATOM     28  C   UNL     1      97.038 106.698 101.623  1.00  0.00     0.002 A 
ATOM     29  H   UNL     1      99.805 106.489 104.468  1.00  0.00     0.169 HD
ENDBRANCH  17  18
ENDBRANCH  16  17
ENDBRANCH   3  16
TORSDOF 5
ENDMDL
MODEL 3
REMARK VINA RESULT:      -7.6      1.352      1.631
REMARK SMILES O=C(CC[C@H]1Cc2ccccc2NC1=O)NNC(=O)c1ccccc1Cl
REMARK SMILES IDX 1 1 16 2 2 3 17 5 18 6 19 7 20 9 25 10 24 11 21 12 23 13
REMARK SMILES IDX 22 14 26 15 3 16 4 17 5 18 6 19 14 20 7 21 15 22 13 23 12 24
REMARK SMILES IDX 8 25 11 26 9 27 10 28
REMARK H PARENT 16 4 17 8 13 29
ROOT
ATOM      1  O   UNL     1      95.547 109.588 109.202  1.00  0.00    -0.273 OA
ATOM      2  N   UNL     1      97.179 107.941 109.263  1.00  0.00    -0.267 N 
ATOM      3  C   UNL     1      96.441 108.985 109.789  1.00  0.00     0.238 C 
ATOM      4  H   UNL     1      97.917 107.456 109.764  1.00  0.00     0.191 HD
ENDROOT
BRANCH   2   5
ATOM      5  N   UNL     1      96.915 107.517 107.982  1.00  0.00    -0.263 N 
ATOM      6  C   UNL     1      97.742 106.568 107.413  1.00  0.00     0.271 C 
ATOM      7  O   UNL     1      98.714 106.060 107.965  1.00  0.00    -0.267 OA
ATOM      8  H   UNL     1      96.120 107.939 107.513  1.00  0.00     0.191 HD
BRANCH   6   9
ATOM      9  C   UNL     1      97.409 106.177 106.019  1.00  0.00     0.060 A 
ATOM     10  C   UNL     1      98.202 106.557 104.935  1.00  0.00     0.053 A 
ATOM     11  C   UNL     1      97.852 106.166 103.643  1.00  0.00     0.021 A 
ATOM     12  C   UNL     1      96.265 105.405 105.809  1.00  0.00     0.015 A 
ATOM     13  C   UNL     1      96.708 105.395 103.434  1.00  0.00     0.002 A 
ATOM     14  C   UNL     1      95.915 105.014 104.517  1.00  0.00     0.001 A 
ATOM     15  Cl  UNL     1      99.625 107.511 105.152  1.00  0.00    -0.083 Cl
ENDBRANCH   6   9
ENDBRANCH   2   5
BRANCH   3  16
ATOM     16  C   UNL     1      96.895 109.330 111.198  1.00  0.00     0.103 C 
BRANCH  16  17
ATOM     17  C   UNL     1      97.307 108.118 112.027  1.00  0.00     0.024 C 
BRANCH  17  18
ATOM     18  C   UNL     1      96.322 107.823 113.159  1.00  0.00     0.084 C 
ATOM     19  C   UNL     1      96.017 106.327 113.279  1.00  0.00     0.051 C 
ATOM     20  C   UNL     1      96.868 108.407 114.457  1.00  0.00     0.227 C 
ATOM     21  C   UNL     1      97.133 105.578 113.948  1.00  0.00    -0.024 A 
ATOM     22  O   UNL     1      96.637 109.574 114.774  1.00  0.00    -0.274 OA
ATOM     23  N   UNL     1      97.706 107.589 115.189  1.00  0.00    -0.326 N 
ATOM     24  C   UNL     1      97.916 106.227 114.910  1.00  0.00     0.044 A 
ATOM     25  C   UNL     1      97.341 104.218 113.698  1.00  0.00     0.006 A 
ATOM     26  C   UNL     1      98.894 105.524 115.618  1.00  0.00     0.026 A 
ATOM     27  C   UNL     1      98.330 103.519 114.393  1.00  0.00     0.000 A 
ATOM     28  C   UNL     1      99.104 104.172 115.352  1.00  0.00     0.002 A 
ATOM     29  H   UNL     1      98.194 107.989 115.984  1.00  0.00     0.169 HD
ENDBRANCH  17  18
ENDBRANCH  16  17
ENDBRANCH   3  16
TORSDOF 5
ENDMDL
MODEL 4
REMARK VINA RESULT:      -7.2     12.165     14.810
REMARK SMILES O=C(CC[C@H]1Cc2ccccc2NC1=O)NNC(=O)c1ccccc1Cl
REMARK SMILES IDX 1 1 16 2 2 3 17 5 18 6 19 7 20 9 25 10 24 11 21 12 23 13
REMARK SMILES IDX 22 14 26 15 3 16 4 17 5 18 6 19 14 20 7 21 15 22 13 23 12 24
REMARK SMILES IDX 8 25 11 26 9 27 10 28
REMARK H PARENT 16 4 17 8 13 29
ROOT
ATOM      1  O   UNL     1     103.252  97.159 114.120  1.00  0.00    -0.273 OA
ATOM      2  N   UNL     1     103.492  96.842 111.834  1.00  0.00    -0.267 N 
ATOM      3  C   UNL     1     103.956  96.974 113.130  1.00  0.00     0.238 C 
ATOM      4  H   UNL     1     104.090  96.692 111.028  1.00  0.00     0.191 HD
ENDROOT
BRANCH   2   5
ATOM      5  N   UNL     1     102.140  96.917 111.599  1.00  0.00    -0.263 N 
ATOM      6  C   UNL     1     101.412  95.745 111.531  1.00  0.00     0.271 C 
ATOM      7  O   UNL     1     101.880  94.617 111.665  1.00  0.00    -0.267 OA
ATOM      8  H   UNL     1     101.745  97.844 111.477  1.00  0.00     0.191 HD
BRANCH   6   9
ATOM      9  C   UNL     1      99.961  95.903 111.252  1.00  0.00     0.060 A 
ATOM     10  C   UNL     1      99.030  96.101 112.272  1.00  0.00     0.053 A 
ATOM     11  C   UNL     1      97.678  96.246 111.965  1.00  0.00     0.021 A 
ATOM     12  C   UNL     1      99.538  95.848 109.924  1.00  0.00     0.015 A 
ATOM     13  C   UNL     1      97.255  96.191 110.637  1.00  0.00     0.002 A 
ATOM     14  C   UNL     1      98.185  95.993 109.616  1.00  0.00     0.001 A 
ATOM     15  Cl  UNL     1      99.512  96.176 113.929  1.00  0.00    -0.083 Cl
ENDBRANCH   6   9
ENDBRANCH   2   5
BRANCH   3  16
ATOM     16  C   UNL     1     105.473  96.895 113.187  1.00  0.00     0.103 C 
BRANCH  16  17
ATOM     17  C   UNL     1     106.084  96.016 112.102  1.00  0.00     0.024 C 
BRANCH  17  18
ATOM     18  C   UNL     1     106.988  94.924 112.676  1.00  0.00     0.084 C 
ATOM     19  C   UNL     1     106.613  94.570 114.119  1.00  0.00     0.051 C 
ATOM     20  C   UNL     1     106.949  93.710 111.756  1.00  0.00     0.227 C 
ATOM     21  C   UNL     1     105.389  93.702 114.184  1.00  0.00    -0.024 A 
ATOM     22  O   UNL     1     107.716  93.617 110.796  1.00  0.00    -0.274 OA
ATOM     23  N   UNL     1     105.950  92.790 112.002  1.00  0.00    -0.326 N 
ATOM     24  C   UNL     1     105.121  92.813 113.137  1.00  0.00     0.044 A 
ATOM     25  C   UNL     1     104.566  93.698 115.315  1.00  0.00     0.006 A 
ATOM     26  C   UNL     1     104.045  91.925 113.219  1.00  0.00     0.026 A 
ATOM     27  C   UNL     1     103.481  92.823 115.390  1.00  0.00     0.000 A 
ATOM     28  C   UNL     1     103.223  91.938 114.345  1.00  0.00     0.002 A 
ATOM     29  H   UNL     1     105.809  92.042 111.329  1.00  0.00     0.169 HD
ENDBRANCH  17  18
ENDBRANCH  16  17
ENDBRANCH   3  16
TORSDOF 5
ENDMDL
MODEL 5
REMARK VINA RESULT:      -7.0     11.766     13.482
REMARK SMILES O=C(CC[C@H]1Cc2ccccc2NC1=O)NNC(=O)c1ccccc1Cl
REMARK SMILES IDX 1 1 16 2 2 3 17 5 18 6 19 7 20 9 25 10 24 11 21 12 23 13
REMARK SMILES IDX 22 14 26 15 3 16 4 17 5 18 6 19 14 20 7 21 15 22 13 23 12 24
REMARK SMILES IDX 8 25 11 26 9 27 10 28
REMARK H PARENT 16 4 17 8 13 29
ROOT
ATOM      1  O   UNL     1      99.415  96.525 112.727  1.00  0.00    -0.273 OA
ATOM      2  N   UNL     1     101.322  96.375 111.414  1.00  0.00    -0.267 N 
ATOM      3  C   UNL     1     100.637  96.477 112.611  1.00  0.00     0.238 C 
ATOM      4  H   UNL     1     102.333  96.339 111.339  1.00  0.00     0.191 HD
ENDROOT
BRANCH   2   5
ATOM      5  N   UNL     1     100.608  96.319 110.241  1.00  0.00    -0.263 N 
ATOM      6  C   UNL     1     100.202  95.085 109.768  1.00  0.00     0.271 C 
ATOM      7  O   UNL     1     100.430  94.011 110.320  1.00  0.00    -0.267 OA
ATOM      8  H   UNL     1     100.424  97.200 109.772  1.00  0.00     0.191 HD
BRANCH   6   9
ATOM      9  C   UNL     1      99.456  95.101 108.484  1.00  0.00     0.060 A 
ATOM     10  C   UNL     1      98.129  95.527 108.406  1.00  0.00     0.053 A 
ATOM     11  C   UNL     1      97.467  95.526 107.179  1.00  0.00     0.021 A 
ATOM     12  C   UNL     1     100.119  94.674 107.333  1.00  0.00     0.015 A 
ATOM     13  C   UNL     1      98.131  95.099 106.029  1.00  0.00     0.002 A 
ATOM     14  C   UNL     1      99.457  94.673 106.106  1.00  0.00     0.001 A 
ATOM     15  Cl  UNL     1      97.272  96.064 109.806  1.00  0.00    -0.083 Cl
ENDBRANCH   6   9
ENDBRANCH   2   5
BRANCH   3  16
ATOM     16  C   UNL     1     101.591  96.558 113.791  1.00  0.00     0.103 C 
BRANCH  16  17
ATOM     17  C   UNL     1     102.938  95.887 113.540  1.00  0.00     0.024 C 
BRANCH  17  18
ATOM     18  C   UNL     1     104.105  96.873 113.624  1.00  0.00     0.084 C 
ATOM     19  C   UNL     1     105.240  96.343 114.505  1.00  0.00     0.051 C 
ATOM     20  C   UNL     1     104.576  97.207 112.214  1.00  0.00     0.227 C 
ATOM     21  C   UNL     1     106.064  95.306 113.797  1.00  0.00    -0.024 A 
ATOM     22  O   UNL     1     104.058  98.122 111.572  1.00  0.00    -0.274 OA
ATOM     23  N   UNL     1     105.532  96.369 111.676  1.00  0.00    -0.326 N 
ATOM     24  C   UNL     1     106.211  95.379 112.407  1.00  0.00     0.044 A 
ATOM     25  C   UNL     1     106.763  94.328 114.511  1.00  0.00     0.006 A 
ATOM     26  C   UNL     1     107.052  94.487 111.736  1.00  0.00     0.026 A 
ATOM     27  C   UNL     1     107.590  93.426 113.840  1.00  0.00     0.000 A 
ATOM     28  C   UNL     1     107.735  93.506 112.455  1.00  0.00     0.002 A 
ATOM     29  H   UNL     1     105.770  96.478 110.694  1.00  0.00     0.169 HD
ENDBRANCH  17  18
ENDBRANCH  16  17
ENDBRANCH   3  16
TORSDOF 5
ENDMDL
MODEL 6
REMARK VINA RESULT:      -6.9     12.710     15.356
REMARK SMILES O=C(CC[C@H]1Cc2ccccc2NC1=O)NNC(=O)c1ccccc1Cl
REMARK SMILES IDX 1 1 16 2 2 3 17 5 18 6 19 7 20 9 25 10 24 11 21 12 23 13
REMARK SMILES IDX 22 14 26 15 3 16 4 17 5 18 6 19 14 20 7 21 15 22 13 23 12 24
REMARK SMILES IDX 8 25 11 26 9 27 10 28
REMARK H PARENT 16 4 17 8 13 29
ROOT
ATOM      1  O   UNL     1     102.440  91.925 113.588  1.00  0.00    -0.273 OA
ATOM      2  N   UNL     1     103.198  93.440 112.003  1.00  0.00    -0.267 N 
ATOM      3  C   UNL     1     103.354  92.468 112.974  1.00  0.00     0.238 C 
ATOM      4  H   UNL     1     103.967  93.879 111.507  1.00  0.00     0.191 HD
ENDROOT
BRANCH   2   5
ATOM      5  N   UNL     1     101.929  93.854 111.673  1.00  0.00    -0.263 N 
ATOM      6  C   UNL     1     101.629  95.201 111.748  1.00  0.00     0.271 C 
ATOM      7  O   UNL     1     102.417  96.079 112.090  1.00  0.00    -0.267 OA
ATOM      8  H   UNL     1     101.267  93.135 111.398  1.00  0.00     0.191 HD
BRANCH   6   9
ATOM      9  C   UNL     1     100.233  95.570 111.399  1.00  0.00     0.060 A 
ATOM     10  C   UNL     1      99.293  95.906 112.374  1.00  0.00     0.053 A 
ATOM     11  C   UNL     1      97.993  96.247 112.001  1.00  0.00     0.021 A 
ATOM     12  C   UNL     1      99.873  95.577 110.051  1.00  0.00     0.015 A 
ATOM     13  C   UNL     1      97.633  96.253 110.654  1.00  0.00     0.002 A 
ATOM     14  C   UNL     1      98.573  95.919 109.678  1.00  0.00     0.001 A 
ATOM     15  Cl  UNL     1      99.698  95.911 114.053  1.00  0.00    -0.083 Cl
ENDBRANCH   6   9
ENDBRANCH   2   5
BRANCH   3  16
ATOM     16  C   UNL     1     104.823  92.165 113.222  1.00  0.00     0.103 C 
BRANCH  16  17
ATOM     17  C   UNL     1     105.238  92.290 114.685  1.00  0.00     0.024 C 
BRANCH  17  18
ATOM     18  C   UNL     1     106.634  92.896 114.844  1.00  0.00     0.084 C 
ATOM     19  C   UNL     1     107.264  93.248 113.493  1.00  0.00     0.051 C 
ATOM     20  C   UNL     1     106.550  94.100 115.774  1.00  0.00     0.227 C 
ATOM     21  C   UNL     1     106.693  94.514 112.920  1.00  0.00    -0.024 A 
ATOM     22  O   UNL     1     106.643  93.967 116.995  1.00  0.00    -0.274 OA
ATOM     23  N   UNL     1     106.267  95.313 115.177  1.00  0.00    -0.326 N 
ATOM     24  C   UNL     1     106.249  95.520 113.786  1.00  0.00     0.044 A 
ATOM     25  C   UNL     1     106.688  94.744 111.541  1.00  0.00     0.006 A 
ATOM     26  C   UNL     1     105.807  96.745 113.281  1.00  0.00     0.026 A 
ATOM     27  C   UNL     1     106.231  95.962 111.034  1.00  0.00     0.000 A 
ATOM     28  C   UNL     1     105.793  96.960 111.903  1.00  0.00     0.002 A 
ATOM     29  H   UNL     1     106.070  96.109 115.775  1.00  0.00     0.169 HD
ENDBRANCH  17  18
ENDBRANCH  16  17
ENDBRANCH   3  16
TORSDOF 5
ENDMDL
MODEL 7
REMARK VINA RESULT:      -6.9     13.126     16.115
REMARK SMILES O=C(CC[C@H]1Cc2ccccc2NC1=O)NNC(=O)c1ccccc1Cl
REMARK SMILES IDX 1 1 16 2 2 3 17 5 18 6 19 7 20 9 25 10 24 11 21 12 23 13
REMARK SMILES IDX 22 14 26 15 3 16 4 17 5 18 6 19 14 20 7 21 15 22 13 23 12 24
REMARK SMILES IDX 8 25 11 26 9 27 10 28
REMARK H PARENT 16 4 17 8 13 29
ROOT
ATOM      1  O   UNL     1     101.933  97.123 112.319  1.00  0.00    -0.273 OA
ATOM      2  N   UNL     1     102.155  94.983 111.452  1.00  0.00    -0.267 N 
ATOM      3  C   UNL     1     101.473  96.156 111.718  1.00  0.00     0.238 C 
ATOM      4  H   UNL     1     101.757  94.192 110.955  1.00  0.00     0.191 HD
ENDROOT
BRANCH   2   5
ATOM      5  N   UNL     1     103.455  94.856 111.881  1.00  0.00    -0.263 N 
ATOM      6  C   UNL     1     103.860  93.655 112.431  1.00  0.00     0.271 C 
ATOM      7  O   UNL     1     103.141  92.669 112.572  1.00  0.00    -0.267 OA
ATOM      8  H   UNL     1     104.055  95.669 111.778  1.00  0.00     0.191 HD
BRANCH   6   9
ATOM      9  C   UNL     1     105.271  93.600 112.892  1.00  0.00     0.060 A 
ATOM     10  C   UNL     1     105.604  93.550 114.246  1.00  0.00     0.053 A 
ATOM     11  C   UNL     1     106.943  93.498 114.634  1.00  0.00     0.021 A 
ATOM     12  C   UNL     1     106.278  93.600 111.926  1.00  0.00     0.015 A 
ATOM     13  C   UNL     1     107.949  93.499 113.668  1.00  0.00     0.002 A 
ATOM     14  C   UNL     1     107.617  93.549 112.314  1.00  0.00     0.001 A 
ATOM     15  Cl  UNL     1     104.388  93.547 115.473  1.00  0.00    -0.083 Cl
ENDBRANCH   6   9
ENDBRANCH   2   5
BRANCH   3  16
ATOM     16  C   UNL     1     100.046  96.097 111.197  1.00  0.00     0.103 C 
BRANCH  16  17
ATOM     17  C   UNL     1      99.943  95.690 109.731  1.00  0.00     0.024 C 
BRANCH  17  18
ATOM     18  C   UNL     1      99.089  94.436 109.532  1.00  0.00     0.084 C 
ATOM     19  C   UNL     1      98.230  94.522 108.267  1.00  0.00     0.051 C 
ATOM     20  C   UNL     1      99.995  93.212 109.533  1.00  0.00     0.227 C 
ATOM     21  C   UNL     1      99.034  94.267 107.024  1.00  0.00    -0.024 A 
ATOM     22  O   UNL     1     100.296  92.646 110.585  1.00  0.00    -0.274 OA
ATOM     23  N   UNL     1     100.528  92.847 108.313  1.00  0.00    -0.326 N 
ATOM     24  C   UNL     1     100.136  93.405 107.084  1.00  0.00     0.044 A 
ATOM     25  C   UNL     1      98.645  94.798 105.790  1.00  0.00     0.006 A 
ATOM     26  C   UNL     1     100.839  93.074 105.924  1.00  0.00     0.026 A 
ATOM     27  C   UNL     1      99.357  94.481 104.633  1.00  0.00     0.000 A 
ATOM     28  C   UNL     1     100.452  93.619 104.700  1.00  0.00     0.002 A 
ATOM     29  H   UNL     1     101.240  92.122 108.297  1.00  0.00     0.169 HD
ENDBRANCH  17  18
ENDBRANCH  16  17
ENDBRANCH   3  16
TORSDOF 5
ENDMDL
MODEL 8
REMARK VINA RESULT:      -6.9     13.179     16.280
REMARK SMILES O=C(CC[C@H]1Cc2ccccc2NC1=O)NNC(=O)c1ccccc1Cl
REMARK SMILES IDX 1 1 16 2 2 3 17 5 18 6 19 7 20 9 25 10 24 11 21 12 23 13
REMARK SMILES IDX 22 14 26 15 3 16 4 17 5 18 6 19 14 20 7 21 15 22 13 23 12 24
REMARK SMILES IDX 8 25 11 26 9 27 10 28
REMARK H PARENT 16 4 17 8 13 29
ROOT
ATOM      1  O   UNL     1     101.359  93.011 111.496  1.00  0.00    -0.273 OA
ATOM      2  N   UNL     1     102.494  95.032 111.568  1.00  0.00    -0.267 N 
ATOM      3  C   UNL     1     101.417  94.217 111.274  1.00  0.00     0.238 C 
ATOM      4  H   UNL     1     102.525  96.028 111.375  1.00  0.00     0.191 HD
ENDROOT
BRANCH   2   5
ATOM      5  N   UNL     1     103.605  94.480 112.160  1.00  0.00    -0.263 N 
ATOM      6  C   UNL     1     104.727  95.269 112.333  1.00  0.00     0.271 C 
ATOM      7  O   UNL     1     104.818  96.447 111.995  1.00  0.00    -0.267 OA
ATOM      8  H   UNL     1     103.544  93.505 112.434  1.00  0.00     0.191 HD
BRANCH   6   9
ATOM      9  C   UNL     1     105.896  94.598 112.958  1.00  0.00     0.060 A 
ATOM     10  C   UNL     1     106.963  94.115 112.200  1.00  0.00     0.053 A 
ATOM     11  C   UNL     1     108.041  93.492 112.829  1.00  0.00     0.021 A 
ATOM     12  C   UNL     1     105.908  94.458 114.346  1.00  0.00     0.015 A 
ATOM     13  C   UNL     1     108.052  93.352 114.216  1.00  0.00     0.002 A 
ATOM     14  C   UNL     1     106.986  93.835 114.975  1.00  0.00     0.001 A 
ATOM     15  Cl  UNL     1     106.988  94.269 110.479  1.00  0.00    -0.083 Cl
ENDBRANCH   6   9
ENDBRANCH   2   5
BRANCH   3  16
ATOM     16  C   UNL     1     100.301  94.996 110.598  1.00  0.00     0.103 C 
BRANCH  16  17
ATOM     17  C   UNL     1      99.514  94.183 109.575  1.00  0.00     0.024 C 
BRANCH  17  18
ATOM     18  C   UNL     1      98.904  95.058 108.479  1.00  0.00     0.084 C 
ATOM     19  C   UNL     1      99.902  95.349 107.355  1.00  0.00     0.051 C 
ATOM     20  C   UNL     1      97.632  94.396 107.964  1.00  0.00     0.227 C 
ATOM     21  C   UNL     1     100.069  94.174 106.434  1.00  0.00    -0.024 A 
ATOM     22  O   UNL     1      96.546  94.598 108.509  1.00  0.00    -0.274 OA
ATOM     23  N   UNL     1      97.789  93.492 106.932  1.00  0.00    -0.326 N 
ATOM     24  C   UNL     1      98.990  93.307 106.226  1.00  0.00     0.044 A 
ATOM     25  C   UNL     1     101.250  93.988 105.708  1.00  0.00     0.006 A 
ATOM     26  C   UNL     1      99.088  92.265 105.299  1.00  0.00     0.026 A 
ATOM     27  C   UNL     1     101.354  92.937 104.794  1.00  0.00     0.000 A 
ATOM     28  C   UNL     1     100.274  92.079 104.590  1.00  0.00     0.002 A 
ATOM     29  H   UNL     1      96.988  92.933 106.656  1.00  0.00     0.169 HD
ENDBRANCH  17  18
ENDBRANCH  16  17
ENDBRANCH   3  16
TORSDOF 5
ENDMDL
MODEL 9
REMARK VINA RESULT:      -6.9     13.258     15.602
REMARK SMILES O=C(CC[C@H]1Cc2ccccc2NC1=O)NNC(=O)c1ccccc1Cl
REMARK SMILES IDX 1 1 16 2 2 3 17 5 18 6 19 7 20 9 25 10 24 11 21 12 23 13
REMARK SMILES IDX 22 14 26 15 3 16 4 17 5 18 6 19 14 20 7 21 15 22 13 23 12 24
REMARK SMILES IDX 8 25 11 26 9 27 10 28
REMARK H PARENT 16 4 17 8 13 29
ROOT
ATOM      1  O   UNL     1     102.832  94.902 115.216  1.00  0.00    -0.273 OA
ATOM      2  N   UNL     1     102.655  92.819 114.211  1.00  0.00    -0.267 N 
ATOM      3  C   UNL     1     103.144  93.717 115.142  1.00  0.00     0.238 C 
ATOM      4  H   UNL     1     102.927  91.842 114.165  1.00  0.00     0.191 HD
ENDROOT
BRANCH   2   5
ATOM      5  N   UNL     1     101.743  93.255 113.280  1.00  0.00    -0.263 N 
ATOM      6  C   UNL     1     102.207  93.734 112.070  1.00  0.00     0.271 C 
ATOM      7  O   UNL     1     103.391  93.803 111.748  1.00  0.00    -0.267 OA
ATOM      8  H   UNL     1     100.763  93.211 113.540  1.00  0.00     0.191 HD
BRANCH   6   9
ATOM      9  C   UNL     1     101.165  94.208 111.123  1.00  0.00     0.060 A 
ATOM     10  C   UNL     1     100.837  95.559 111.003  1.00  0.00     0.053 A 
ATOM     11  C   UNL     1      99.853  95.961 110.100  1.00  0.00     0.021 A 
ATOM     12  C   UNL     1     100.508  93.260 110.339  1.00  0.00     0.015 A 
ATOM     13  C   UNL     1      99.196  95.012 109.317  1.00  0.00     0.002 A 
ATOM     14  C   UNL     1      99.524  93.661 109.436  1.00  0.00     0.001 A 
ATOM     15  Cl  UNL     1     101.627  96.766 111.954  1.00  0.00    -0.083 Cl
ENDBRANCH   6   9
ENDBRANCH   2   5
BRANCH   3  16
ATOM     16  C   UNL     1     104.160  93.061 116.064  1.00  0.00     0.103 C 
BRANCH  16  17
ATOM     17  C   UNL     1     105.356  92.460 115.334  1.00  0.00     0.024 C 
BRANCH  17  18
ATOM     18  C   UNL     1     106.622  93.303 115.496  1.00  0.00     0.084 C 
ATOM     19  C   UNL     1     107.472  93.312 114.222  1.00  0.00     0.051 C 
ATOM     20  C   UNL     1     106.232  94.707 115.940  1.00  0.00     0.227 C 
ATOM     21  C   UNL     1     106.903  94.226 113.174  1.00  0.00    -0.024 A 
ATOM     22  O   UNL     1     106.089  94.980 117.133  1.00  0.00    -0.274 OA
ATOM     23  N   UNL     1     105.953  95.610 114.933  1.00  0.00    -0.326 N 
ATOM     24  C   UNL     1     106.194  95.366 113.569  1.00  0.00     0.044 A 
ATOM     25  C   UNL     1     107.152  94.009 111.815  1.00  0.00     0.006 A 
ATOM     26  C   UNL     1     105.741  96.283 112.617  1.00  0.00     0.026 A 
ATOM     27  C   UNL     1     106.685  94.916 110.862  1.00  0.00     0.000 A 
ATOM     28  C   UNL     1     105.982  96.052 111.264  1.00  0.00     0.002 A 
ATOM     29  H   UNL     1     105.559  96.510 115.189  1.00  0.00     0.169 HD
ENDBRANCH  17  18
ENDBRANCH  16  17
ENDBRANCH   3  16
TORSDOF 5
ENDMDL
MODEL 10
REMARK VINA RESULT:      -6.8     12.032     13.798
REMARK SMILES O=C(CC[C@H]1Cc2ccccc2NC1=O)NNC(=O)c1ccccc1Cl
REMARK SMILES IDX 1 1 16 2 2 3 17 5 18 6 19 7 20 9 25 10 24 11 21 12 23 13
REMARK SMILES IDX 22 14 26 15 3 16 4 17 5 18 6 19 14 20 7 21 15 22 13 23 12 24
REMARK SMILES IDX 8 25 11 26 9 27 10 28
REMARK H PARENT 16 4 17 8 13 29
ROOT
ATOM      1  O   UNL     1     100.439  96.437 112.944  1.00  0.00    -0.273 OA
ATOM      2  N   UNL     1     101.374  96.587 110.827  1.00  0.00    -0.267 N 
ATOM      3  C   UNL     1     101.414  96.567 112.209  1.00  0.00     0.238 C 
ATOM      4  H   UNL     1     102.191  96.698 110.235  1.00  0.00     0.191 HD
ENDROOT
BRANCH   2   5
ATOM      5  N   UNL     1     100.162  96.453 110.193  1.00  0.00    -0.263 N 
ATOM      6  C   UNL     1      99.787  95.204 109.735  1.00  0.00     0.271 C 
ATOM      7  O   UNL     1     100.459  94.182 109.849  1.00  0.00    -0.267 OA
ATOM      8  H   UNL     1      99.603  97.293 110.085  1.00  0.00     0.191 HD
BRANCH   6   9
ATOM      9  C   UNL     1      98.475  95.140 109.041  1.00  0.00     0.060 A 
ATOM     10  C   UNL     1      98.378  95.060 107.651  1.00  0.00     0.053 A 
ATOM     11  C   UNL     1      97.126  95.001 107.041  1.00  0.00     0.021 A 
ATOM     12  C   UNL     1      97.317  95.160 109.820  1.00  0.00     0.015 A 
ATOM     13  C   UNL     1      95.969  95.022 107.820  1.00  0.00     0.002 A 
ATOM     14  C   UNL     1      96.065  95.100 109.209  1.00  0.00     0.001 A 
ATOM     15  Cl  UNL     1      99.786  95.032 106.651  1.00  0.00    -0.083 Cl
ENDBRANCH   6   9
ENDBRANCH   2   5
BRANCH   3  16
ATOM     16  C   UNL     1     102.830  96.760 112.726  1.00  0.00     0.103 C 
BRANCH  16  17
ATOM     17  C   UNL     1     103.884  95.991 111.936  1.00  0.00     0.024 C 
BRANCH  17  18
ATOM     18  C   UNL     1     105.284  96.583 112.102  1.00  0.00     0.084 C 
ATOM     19  C   UNL     1     105.593  96.923 113.563  1.00  0.00     0.051 C 
ATOM     20  C   UNL     1     106.305  95.622 111.505  1.00  0.00     0.227 C 
ATOM     21  C   UNL     1     105.929  95.698 114.366  1.00  0.00    -0.024 A 
ATOM     22  O   UNL     1     106.599  95.671 110.310  1.00  0.00    -0.274 OA
ATOM     23  N   UNL     1     106.791  94.645 112.351  1.00  0.00    -0.326 N 
ATOM     24  C   UNL     1     106.553  94.615 113.736  1.00  0.00     0.044 A 
ATOM     25  C   UNL     1     105.718  95.661 115.748  1.00  0.00     0.006 A 
ATOM     26  C   UNL     1     106.965  93.506 114.480  1.00  0.00     0.026 A 
ATOM     27  C   UNL     1     106.115  94.546 116.488  1.00  0.00     0.000 A 
ATOM     28  C   UNL     1     106.739  93.471 115.855  1.00  0.00     0.002 A 
ATOM     29  H   UNL     1     107.366  93.908 111.955  1.00  0.00     0.169 HD
ENDBRANCH  17  18
ENDBRANCH  16  17
ENDBRANCH   3  16
TORSDOF 5
ENDMDL
MODEL 11
REMARK VINA RESULT:      -6.8     11.899     12.843
REMARK SMILES O=C(CC[C@H]1Cc2ccccc2NC1=O)NNC(=O)c1ccccc1Cl
REMARK SMILES IDX 1 1 16 2 2 3 17 5 18 6 19 7 20 9 25 10 24 11 21 12 23 13
REMARK SMILES IDX 22 14 26 15 3 16 4 17 5 18 6 19 14 20 7 21 15 22 13 23 12 24
REMARK SMILES IDX 8 25 11 26 9 27 10 28
REMARK H PARENT 16 4 17 8 13 29
ROOT
ATOM      1  O   UNL     1      97.965  95.772 109.784  1.00  0.00    -0.273 OA
ATOM      2  N   UNL     1     100.183  95.837 109.107  1.00  0.00    -0.267 N 
ATOM      3  C   UNL     1      99.161  95.877 110.038  1.00  0.00     0.238 C 
ATOM      4  H   UNL     1     101.167  95.928 109.337  1.00  0.00     0.191 HD
ENDROOT
BRANCH   2   5
ATOM      5  N   UNL     1      99.868  95.665 107.780  1.00  0.00    -0.263 N 
ATOM      6  C   UNL     1      99.833  94.383 107.266  1.00  0.00     0.271 C 
ATOM      7  O   UNL     1     100.064  93.361 107.908  1.00  0.00    -0.267 OA
ATOM      8  H   UNL     1      99.685  96.504 107.239  1.00  0.00     0.191 HD
BRANCH   6   9
ATOM      9  C   UNL     1      99.508  94.277 105.820  1.00  0.00     0.060 A 
ATOM     10  C   UNL     1     100.454  93.872 104.878  1.00  0.00     0.053 A 
ATOM     11  C   UNL     1     100.105  93.786 103.531  1.00  0.00     0.021 A 
ATOM     12  C   UNL     1      98.212  94.596 105.413  1.00  0.00     0.015 A 
ATOM     13  C   UNL     1      98.810  94.105 103.125  1.00  0.00     0.002 A 
ATOM     14  C   UNL     1      97.863  94.510 104.066  1.00  0.00     0.001 A 
ATOM     15  Cl  UNL     1     102.069  93.468 105.340  1.00  0.00    -0.083 Cl
ENDBRANCH   6   9
ENDBRANCH   2   5
BRANCH   3  16
ATOM     16  C   UNL     1      99.700  96.104 111.442  1.00  0.00     0.103 C 
BRANCH  16  17
ATOM     17  C   UNL     1     101.219  96.223 111.506  1.00  0.00     0.024 C 
BRANCH  17  18
ATOM     18  C   UNL     1     101.784  95.753 112.848  1.00  0.00     0.084 C 
ATOM     19  C   UNL     1     102.934  94.757 112.669  1.00  0.00     0.051 C 
ATOM     20  C   UNL     1     102.197  96.970 113.667  1.00  0.00     0.227 C 
ATOM     21  C   UNL     1     104.213  95.440 112.279  1.00  0.00    -0.024 A 
ATOM     22  O   UNL     1     101.389  97.551 114.392  1.00  0.00    -0.274 OA
ATOM     23  N   UNL     1     103.483  97.431 113.468  1.00  0.00    -0.326 N 
ATOM     24  C   UNL     1     104.459  96.743 112.726  1.00  0.00     0.044 A 
ATOM     25  C   UNL     1     105.203  94.763 111.559  1.00  0.00     0.006 A 
ATOM     26  C   UNL     1     105.683  97.364 112.461  1.00  0.00     0.026 A 
ATOM     27  C   UNL     1     106.419  95.388 111.279  1.00  0.00     0.000 A 
ATOM     28  C   UNL     1     106.659  96.685 111.731  1.00  0.00     0.002 A 
ATOM     29  H   UNL     1     103.748  98.315 113.892  1.00  0.00     0.169 HD
ENDBRANCH  17  18
ENDBRANCH  16  17
ENDBRANCH   3  16
TORSDOF 5
ENDMDL
MODEL 12
REMARK VINA RESULT:      -6.7     13.267     16.343
REMARK SMILES O=C(CC[C@H]1Cc2ccccc2NC1=O)NNC(=O)c1ccccc1Cl
REMARK SMILES IDX 1 1 16 2 2 3 17 5 18 6 19 7 20 9 25 10 24 11 21 12 23 13
REMARK SMILES IDX 22 14 26 15 3 16 4 17 5 18 6 19 14 20 7 21 15 22 13 23 12 24
REMARK SMILES IDX 8 25 11 26 9 27 10 28
REMARK H PARENT 16 4 17 8 13 29
ROOT
ATOM      1  O   UNL     1     101.242  92.770 111.338  1.00  0.00    -0.273 OA
ATOM      2  N   UNL     1     102.285  94.839 111.437  1.00  0.00    -0.267 N 
ATOM      3  C   UNL     1     101.237  93.984 111.154  1.00  0.00     0.238 C 
ATOM      4  H   UNL     1     102.263  95.841 111.276  1.00  0.00     0.191 HD
ENDROOT
BRANCH   2   5
ATOM      5  N   UNL     1     103.441  94.322 111.971  1.00  0.00    -0.263 N 
ATOM      6  C   UNL     1     104.455  95.190 112.330  1.00  0.00     0.271 C 
ATOM      7  O   UNL     1     104.409  96.412 112.209  1.00  0.00    -0.267 OA
ATOM      8  H   UNL     1     103.493  93.312 112.066  1.00  0.00     0.191 HD
BRANCH   6   9
ATOM      9  C   UNL     1     105.682  94.557 112.878  1.00  0.00     0.060 A 
ATOM     10  C   UNL     1     105.869  94.377 114.249  1.00  0.00     0.053 A 
ATOM     11  C   UNL     1     107.037  93.777 114.721  1.00  0.00     0.021 A 
ATOM     12  C   UNL     1     106.663  94.138 111.980  1.00  0.00     0.015 A 
ATOM     13  C   UNL     1     108.018  93.359 113.822  1.00  0.00     0.002 A 
ATOM     14  C   UNL     1     107.831  93.539 112.451  1.00  0.00     0.001 A 
ATOM     15  Cl  UNL     1     104.680  94.881 115.396  1.00  0.00    -0.083 Cl
ENDBRANCH   6   9
ENDBRANCH   2   5
BRANCH   3  16
ATOM     16  C   UNL     1     100.062  94.730 110.543  1.00  0.00     0.103 C 
BRANCH  16  17
ATOM     17  C   UNL     1      99.351  93.959 109.436  1.00  0.00     0.024 C 
BRANCH  17  18
ATOM     18  C   UNL     1      98.798  94.880 108.347  1.00  0.00     0.084 C 
ATOM     19  C   UNL     1      99.865  95.246 107.310  1.00  0.00     0.051 C 
ATOM     20  C   UNL     1      97.578  94.223 107.712  1.00  0.00     0.227 C 
ATOM     21  C   UNL     1     100.118  94.124 106.344  1.00  0.00    -0.024 A 
ATOM     22  O   UNL     1      96.453  94.378 108.190  1.00  0.00    -0.274 OA
ATOM     23  N   UNL     1      97.825  93.378 106.649  1.00  0.00    -0.326 N 
ATOM     24  C   UNL     1      99.075  93.250 106.019  1.00  0.00     0.044 A 
ATOM     25  C   UNL     1     101.349  93.997 105.693  1.00  0.00     0.006 A 
ATOM     26  C   UNL     1      99.257  92.261 105.049  1.00  0.00     0.026 A 
ATOM     27  C   UNL     1     101.537  92.998 104.737  1.00  0.00     0.000 A 
ATOM     28  C   UNL     1     100.492  92.133 104.414  1.00  0.00     0.002 A 
ATOM     29  H   UNL     1      97.055  92.820 106.290  1.00  0.00     0.169 HD
ENDBRANCH  17  18
ENDBRANCH  16  17
ENDBRANCH   3  16
TORSDOF 5
ENDMDL
MODEL 13
REMARK VINA RESULT:      -6.7     12.598     15.837
REMARK SMILES O=C(CC[C@H]1Cc2ccccc2NC1=O)NNC(=O)c1ccccc1Cl
REMARK SMILES IDX 1 1 16 2 2 3 17 5 18 6 19 7 20 9 25 10 24 11 21 12 23 13
REMARK SMILES IDX 22 14 26 15 3 16 4 17 5 18 6 19 14 20 7 21 15 22 13 23 12 24
REMARK SMILES IDX 8 25 11 26 9 27 10 28
REMARK H PARENT 16 4 17 8 13 29
ROOT
ATOM      1  O   UNL     1     105.254  94.080 116.609  1.00  0.00    -0.273 OA
ATOM      2  N   UNL     1     105.091  95.689 114.945  1.00  0.00    -0.267 N 
ATOM      3  C   UNL     1     105.624  94.560 115.540  1.00  0.00     0.238 C 
ATOM      4  H   UNL     1     105.412  96.072 114.062  1.00  0.00     0.191 HD
ENDROOT
BRANCH   2   5
ATOM      5  N   UNL     1     104.062  96.350 115.573  1.00  0.00    -0.263 N 
ATOM      6  C   UNL     1     103.279  97.214 114.832  1.00  0.00     0.271 C 
ATOM      7  O   UNL     1     103.426  97.447 113.635  1.00  0.00    -0.267 OA
ATOM      8  H   UNL     1     103.938  96.173 116.564  1.00  0.00     0.191 HD
BRANCH   6   9
ATOM      9  C   UNL     1     102.202  97.910 115.582  1.00  0.00     0.060 A 
ATOM     10  C   UNL     1     100.855  97.762 115.247  1.00  0.00     0.053 A 
ATOM     11  C   UNL     1      99.876  98.434 115.980  1.00  0.00     0.021 A 
ATOM     12  C   UNL     1     102.568  98.731 116.649  1.00  0.00     0.015 A 
ATOM     13  C   UNL     1     100.244  99.255 117.046  1.00  0.00     0.002 A 
ATOM     14  C   UNL     1     101.590  99.403 117.381  1.00  0.00     0.001 A 
ATOM     15  Cl  UNL     1     100.358  96.756 113.935  1.00  0.00    -0.083 Cl
ENDBRANCH   6   9
ENDBRANCH   2   5
BRANCH   3  16
ATOM     16  C   UNL     1     106.767  93.987 114.719  1.00  0.00     0.103 C 
BRANCH  16  17
ATOM     17  C   UNL     1     107.061  94.770 113.443  1.00  0.00     0.024 C 
BRANCH  17  18
ATOM     18  C   UNL     1     106.751  93.965 112.180  1.00  0.00     0.084 C 
ATOM     19  C   UNL     1     105.960  92.692 112.492  1.00  0.00     0.051 C 
ATOM     20  C   UNL     1     106.031  94.863 111.182  1.00  0.00     0.227 C 
ATOM     21  C   UNL     1     104.510  92.982 112.757  1.00  0.00    -0.024 A 
ATOM     22  O   UNL     1     106.661  95.564 110.389  1.00  0.00    -0.274 OA
ATOM     23  N   UNL     1     104.655  94.917 111.292  1.00  0.00    -0.326 N 
ATOM     24  C   UNL     1     103.899  94.065 112.116  1.00  0.00     0.044 A 
ATOM     25  C   UNL     1     103.739  92.133 113.557  1.00  0.00     0.006 A 
ATOM     26  C   UNL     1     102.529  94.297 112.269  1.00  0.00     0.026 A 
ATOM     27  C   UNL     1     102.374  92.374 113.724  1.00  0.00     0.000 A 
ATOM     28  C   UNL     1     101.771  93.453 113.079  1.00  0.00     0.002 A 
ATOM     29  H   UNL     1     104.155  95.604 110.737  1.00  0.00     0.169 HD
ENDBRANCH  17  18
ENDBRANCH  16  17
ENDBRANCH   3  16
TORSDOF 5
ENDMDL
MODEL 14
REMARK VINA RESULT:      -6.6     13.007     14.802
REMARK SMILES O=C(CC[C@H]1Cc2ccccc2NC1=O)NNC(=O)c1ccccc1Cl
REMARK SMILES IDX 1 1 16 2 2 3 17 5 18 6 19 7 20 9 25 10 24 11 21 12 23 13
REMARK SMILES IDX 22 14 26 15 3 16 4 17 5 18 6 19 14 20 7 21 15 22 13 23 12 24
REMARK SMILES IDX 8 25 11 26 9 27 10 28
REMARK H PARENT 16 4 17 8 13 29
ROOT
ATOM      1  O   UNL     1     102.473  94.760 112.200  1.00  0.00    -0.273 OA
ATOM      2  N   UNL     1     101.417  92.936 111.231  1.00  0.00    -0.267 N 
ATOM      3  C   UNL     1     102.282  93.550 112.118  1.00  0.00     0.238 C 
ATOM      4  H   UNL     1     101.274  91.933 111.176  1.00  0.00     0.191 HD
ENDROOT
BRANCH   2   5
ATOM      5  N   UNL     1     100.696  93.715 110.357  1.00  0.00    -0.263 N 
ATOM      6  C   UNL     1     100.133  93.118 109.245  1.00  0.00     0.271 C 
ATOM      7  O   UNL     1     100.223  91.925 108.966  1.00  0.00    -0.267 OA
ATOM      8  H   UNL     1     100.624  94.704 110.574  1.00  0.00     0.191 HD
BRANCH   6   9
ATOM      9  C   UNL     1      99.388  94.026 108.335  1.00  0.00     0.060 A 
ATOM     10  C   UNL     1      99.804  94.260 107.023  1.00  0.00     0.053 A 
ATOM     11  C   UNL     1      99.074  95.119 106.203  1.00  0.00     0.021 A 
ATOM     12  C   UNL     1      98.242  94.652 108.825  1.00  0.00     0.015 A 
ATOM     13  C   UNL     1      97.928  95.745 106.693  1.00  0.00     0.002 A 
ATOM     14  C   UNL     1      97.512  95.511 108.004  1.00  0.00     0.001 A 
ATOM     15  Cl  UNL     1     101.216  93.504 106.378  1.00  0.00    -0.083 Cl
ENDBRANCH   6   9
ENDBRANCH   2   5
BRANCH   3  16
ATOM     16  C   UNL     1     103.010  92.529 112.978  1.00  0.00     0.103 C 
BRANCH  16  17
ATOM     17  C   UNL     1     103.414  93.057 114.351  1.00  0.00     0.024 C 
BRANCH  17  18
ATOM     18  C   UNL     1     104.910  92.892 114.622  1.00  0.00     0.084 C 
ATOM     19  C   UNL     1     105.731  92.906 113.329  1.00  0.00     0.051 C 
ATOM     20  C   UNL     1     105.360  93.968 115.603  1.00  0.00     0.227 C 
ATOM     21  C   UNL     1     105.903  94.297 112.787  1.00  0.00    -0.024 A 
ATOM     22  O   UNL     1     105.282  93.789 116.820  1.00  0.00    -0.274 OA
ATOM     23  N   UNL     1     105.755  95.170 115.052  1.00  0.00    -0.326 N 
ATOM     24  C   UNL     1     105.946  95.378 113.675  1.00  0.00     0.044 A 
ATOM     25  C   UNL     1     106.115  94.519 111.423  1.00  0.00     0.006 A 
ATOM     26  C   UNL     1     106.204  96.669 113.205  1.00  0.00     0.026 A 
ATOM     27  C   UNL     1     106.355  95.810 110.952  1.00  0.00     0.000 A 
ATOM     28  C   UNL     1     106.401  96.883 111.842  1.00  0.00     0.002 A 
ATOM     29  H   UNL     1     105.931  95.951 115.677  1.00  0.00     0.169 HD
ENDBRANCH  17  18
ENDBRANCH  16  17
ENDBRANCH   3  16
TORSDOF 5
ENDMDL
MODEL 15
REMARK VINA RESULT:      -6.6      2.116      2.751
REMARK SMILES O=C(CC[C@H]1Cc2ccccc2NC1=O)NNC(=O)c1ccccc1Cl
REMARK SMILES IDX 1 1 16 2 2 3 17 5 18 6 19 7 20 9 25 10 24 11 21 12 23 13
REMARK SMILES IDX 22 14 26 15 3 16 4 17 5 18 6 19 14 20 7 21 15 22 13 23 12 24
REMARK SMILES IDX 8 25 11 26 9 27 10 28
REMARK H PARENT 16 4 17 8 13 29
ROOT
ATOM      1  O   UNL     1      99.607 106.828 107.542  1.00  0.00    -0.273 OA
ATOM      2  N   UNL     1      97.317 107.195 107.592  1.00  0.00    -0.267 N 
ATOM      3  C   UNL     1      98.555 106.959 108.161  1.00  0.00     0.238 C 
ATOM      4  H   UNL     1      96.457 107.297 108.121  1.00  0.00     0.191 HD
ENDROOT
BRANCH   2   5
ATOM      5  N   UNL     1      97.221 107.300 106.225  1.00  0.00    -0.263 N 
ATOM      6  C   UNL     1      96.892 106.175 105.494  1.00  0.00     0.271 C 
ATOM      7  O   UNL     1      96.671 105.065 105.972  1.00  0.00    -0.267 OA
ATOM      8  H   UNL     1      97.411 108.210 105.819  1.00  0.00     0.191 HD
BRANCH   6   9
ATOM      9  C   UNL     1      96.829 106.359 104.021  1.00  0.00     0.060 A 
ATOM     10  C   UNL     1      97.981 106.492 103.244  1.00  0.00     0.053 A 
ATOM     11  C   UNL     1      97.876 106.662 101.864  1.00  0.00     0.021 A 
ATOM     12  C   UNL     1      95.573 106.397 103.416  1.00  0.00     0.015 A 
ATOM     13  C   UNL     1      96.619 106.700 101.260  1.00  0.00     0.002 A 
ATOM     14  C   UNL     1      95.467 106.567 102.036  1.00  0.00     0.001 A 
ATOM     15  Cl  UNL     1      99.555 106.450 103.953  1.00  0.00    -0.083 Cl
ENDBRANCH   6   9
ENDBRANCH   2   5
BRANCH   3  16
ATOM     16  C   UNL     1      98.456 106.843 109.674  1.00  0.00     0.103 C 
BRANCH  16  17
ATOM     17  C   UNL     1      97.917 108.098 110.353  1.00  0.00     0.024 C 
BRANCH  17  18
ATOM     18  C   UNL     1      96.411 108.020 110.611  1.00  0.00     0.084 C 
ATOM     19  C   UNL     1      96.092 107.299 111.924  1.00  0.00     0.051 C 
ATOM     20  C   UNL     1      95.826 109.426 110.567  1.00  0.00     0.227 C 
ATOM     21  C   UNL     1      96.332 108.176 113.120  1.00  0.00    -0.024 A 
ATOM     22  O   UNL     1      95.456 109.926 109.504  1.00  0.00    -0.274 OA
ATOM     23  N   UNL     1      95.831 110.126 111.757  1.00  0.00    -0.326 N 
ATOM     24  C   UNL     1      96.155 109.560 113.002  1.00  0.00     0.044 A 
ATOM     25  C   UNL     1      96.634 107.626 114.370  1.00  0.00     0.006 A 
ATOM     26  C   UNL     1      96.275 110.386 114.122  1.00  0.00     0.026 A 
ATOM     27  C   UNL     1      96.770 108.454 115.486  1.00  0.00     0.000 A 
ATOM     28  C   UNL     1      96.589 109.831 115.362  1.00  0.00     0.002 A 
ATOM     29  H   UNL     1      95.576 111.109 111.738  1.00  0.00     0.169 HD
ENDBRANCH  17  18
ENDBRANCH  16  17
ENDBRANCH   3  16
TORSDOF 5
ENDMDL
