MODEL 1
REMARK VINA RESULT:      -7.8      0.000      0.000
REMARK SMILES O=C(/C=C/c1ccc2ccccc2n1)NCc1cc[nH+]c(N2CCOCC2)c1
REMARK SMILES IDX 1 1 15 2 2 3 16 5 17 6 21 7 20 8 28 9 19 10 18 11 22 13
REMARK SMILES IDX 25 14 24 15 26 16 23 17 27 18 3 19 4 20 5 21 14 22 6 23
REMARK SMILES IDX 13 24 7 25 8 26 12 27 9 28 11 29 10 30
REMARK H PARENT 15 4 20 12
ROOT
ATOM      1  O   UNL     1      95.587 109.268 110.156  1.00  0.00    -0.270 OA
ATOM      2  N   UNL     1      96.976 107.775 111.272  1.00  0.00    -0.348 N 
ATOM      3  C   UNL     1      96.483 108.430 110.156  1.00  0.00     0.244 C 
ATOM      4  H   UNL     1      97.732 107.105 111.172  1.00  0.00     0.164 HD
ENDROOT
BRANCH   2   5
ATOM      5  C   UNL     1      96.474 108.009 112.608  1.00  0.00     0.152 C 
BRANCH   5   6
ATOM      6  C   UNL     1      97.255 107.250 113.642  1.00  0.00    -0.017 A 
ATOM      7  C   UNL     1      97.884 105.191 114.683  1.00  0.00     0.274 A 
ATOM      8  N   UNL     1      98.675 105.872 115.523  1.00  0.00    -0.248 N 
ATOM      9  C   UNL     1      97.151 105.865 113.716  1.00  0.00     0.104 A 
ATOM     10  C   UNL     1      98.793 107.205 115.474  1.00  0.00     0.198 A 
ATOM     11  C   UNL     1      98.084 107.932 114.528  1.00  0.00     0.049 A 
ATOM     12  H   UNL     1      99.200 105.369 116.237  1.00  0.00     0.311 HD
BRANCH   7  13
ATOM     13  N   UNL     1      97.821 103.798 114.803  1.00  0.00    -0.257 N 
ATOM     14  O   UNL     1      97.953 100.994 114.940  1.00  0.00    -0.373 OA
ATOM     15  C   UNL     1      96.965 101.611 114.117  1.00  0.00     0.206 C 
ATOM     16  C   UNL     1      98.176 101.765 116.121  1.00  0.00     0.206 C 
ATOM     17  C   UNL     1      97.440 102.980 113.646  1.00  0.00     0.265 C 
ATOM     18  C   UNL     1      98.721 103.143 115.762  1.00  0.00     0.265 C 
ENDBRANCH   7  13
ENDBRANCH   5   6
ENDBRANCH   2   5
BRANCH   3  19
ATOM     19  C   UNL     1      97.179 108.000 108.910  1.00  0.00     0.073 C 
ATOM     20  C   UNL     1      96.490 107.832 107.759  1.00  0.00     0.034 C 
BRANCH  20  21
ATOM     21  C   UNL     1      97.066 107.426 106.487  1.00  0.00     0.064 A 
ATOM     22  N   UNL     1      96.210 107.376 105.440  1.00  0.00    -0.248 NA
ATOM     23  C   UNL     1      98.410 107.122 106.404  1.00  0.00     0.029 A 
ATOM     24  C   UNL     1      96.695 107.006 104.240  1.00  0.00     0.071 A 
ATOM     25  C   UNL     1      98.905 106.742 105.165  1.00  0.00     0.012 A 
ATOM     26  C   UNL     1      98.054 106.676 104.055  1.00  0.00     0.000 A 
ATOM     27  C   UNL     1      95.848 106.941 103.136  1.00  0.00     0.029 A 
ATOM     28  C   UNL     1      98.525 106.294 102.787  1.00  0.00     0.010 A 
ATOM     29  C   UNL     1      96.317 106.561 101.876  1.00  0.00     0.002 A 
ATOM     30  C   UNL     1      97.657 106.236 101.701  1.00  0.00     0.001 A 
ENDBRANCH  20  21
ENDBRANCH   3  19
TORSDOF 5
ENDMDL
MODEL 2
REMARK VINA RESULT:      -7.5     11.534     13.249
REMARK SMILES O=C(/C=C/c1ccc2ccccc2n1)NCc1cc[nH+]c(N2CCOCC2)c1
REMARK SMILES IDX 1 1 15 2 2 3 16 5 17 6 21 7 20 8 28 9 19 10 18 11 22 13
REMARK SMILES IDX 25 14 24 15 26 16 23 17 27 18 3 19 4 20 5 21 14 22 6 23
REMARK SMILES IDX 13 24 7 25 8 26 12 27 9 28 11 29 10 30
REMARK H PARENT 15 4 20 12
ROOT
ATOM      1  O   UNL     1      99.266  96.055 109.958  1.00  0.00    -0.270 OA
ATOM      2  N   UNL     1     100.448  94.162 110.607  1.00  0.00    -0.348 N 
ATOM      3  C   UNL     1      99.751  94.955 109.712  1.00  0.00     0.244 C 
ATOM      4  H   UNL     1     100.825  93.269 110.304  1.00  0.00     0.164 HD
ENDROOT
BRANCH   2   5
ATOM      5  C   UNL     1     100.691  94.549 111.980  1.00  0.00     0.152 C 
BRANCH   5   6
ATOM      6  C   UNL     1     101.978  95.308 112.129  1.00  0.00    -0.017 A 
ATOM      7  C   UNL     1     104.360  95.350 112.344  1.00  0.00     0.274 A 
ATOM      8  N   UNL     1     104.318  96.688 112.403  1.00  0.00    -0.248 N 
ATOM      9  C   UNL     1     103.187  94.622 112.205  1.00  0.00     0.104 A 
ATOM     10  C   UNL     1     103.169  97.373 112.333  1.00  0.00     0.198 A 
ATOM     11  C   UNL     1     101.965  96.698 112.194  1.00  0.00     0.049 A 
ATOM     12  H   UNL     1     105.184  97.214 112.517  1.00  0.00     0.311 HD
BRANCH   7  13
ATOM     13  N   UNL     1     105.605  94.715 112.424  1.00  0.00    -0.257 N 
ATOM     14  O   UNL     1     108.217  93.695 112.607  1.00  0.00    -0.373 OA
ATOM     15  C   UNL     1     107.453  93.462 111.425  1.00  0.00     0.206 C 
ATOM     16  C   UNL     1     107.375  93.678 113.760  1.00  0.00     0.206 C 
ATOM     17  C   UNL     1     106.432  94.574 111.220  1.00  0.00     0.265 C 
ATOM     18  C   UNL     1     106.350  94.803 113.687  1.00  0.00     0.265 C 
ENDBRANCH   7  13
ENDBRANCH   5   6
ENDBRANCH   2   5
BRANCH   3  19
ATOM     19  C   UNL     1      99.649  94.315 108.370  1.00  0.00     0.073 C 
ATOM     20  C   UNL     1      99.941  95.014 107.250  1.00  0.00     0.034 C 
BRANCH  20  21
ATOM     21  C   UNL     1      99.884  94.490 105.895  1.00  0.00     0.064 A 
ATOM     22  N   UNL     1     101.008  93.883 105.449  1.00  0.00    -0.248 NA
ATOM     23  C   UNL     1      98.731  94.628 105.149  1.00  0.00     0.029 A 
ATOM     24  C   UNL     1     101.006  93.380 104.199  1.00  0.00     0.071 A 
ATOM     25  C   UNL     1      98.734  94.109 103.862  1.00  0.00     0.012 A 
ATOM     26  C   UNL     1      99.876  93.473 103.361  1.00  0.00     0.000 A 
ATOM     27  C   UNL     1     102.143  92.748 103.702  1.00  0.00     0.029 A 
ATOM     28  C   UNL     1      99.910  92.936 102.062  1.00  0.00     0.010 A 
ATOM     29  C   UNL     1     102.177  92.215 102.410  1.00  0.00     0.002 A 
ATOM     30  C   UNL     1     101.060  92.310 101.589  1.00  0.00     0.001 A 
ENDBRANCH  20  21
ENDBRANCH   3  19
TORSDOF 5
ENDMDL
MODEL 3
REMARK VINA RESULT:      -7.4     11.744     13.471
REMARK SMILES O=C(/C=C/c1ccc2ccccc2n1)NCc1cc[nH+]c(N2CCOCC2)c1
REMARK SMILES IDX 1 1 15 2 2 3 16 5 17 6 21 7 20 8 28 9 19 10 18 11 22 13
REMARK SMILES IDX 25 14 24 15 26 16 23 17 27 18 3 19 4 20 5 21 14 22 6 23
REMARK SMILES IDX 13 24 7 25 8 26 12 27 9 28 11 29 10 30
REMARK H PARENT 15 4 20 12
ROOT
ATOM      1  O   UNL     1      99.033  95.196 108.834  1.00  0.00    -0.270 OA
ATOM      2  N   UNL     1     100.513  93.706 109.829  1.00  0.00    -0.348 N 
ATOM      3  C   UNL     1      99.824  94.261 108.764  1.00  0.00     0.244 C 
ATOM      4  H   UNL     1     101.160  92.940 109.668  1.00  0.00     0.164 HD
ENDROOT
BRANCH   2   5
ATOM      5  C   UNL     1     100.375  94.178 111.189  1.00  0.00     0.152 C 
BRANCH   5   6
ATOM      6  C   UNL     1     101.532  95.040 111.605  1.00  0.00    -0.017 A 
ATOM      7  C   UNL     1     103.837  95.294 112.191  1.00  0.00     0.274 A 
ATOM      8  N   UNL     1     103.635  96.607 112.363  1.00  0.00    -0.248 N 
ATOM      9  C   UNL     1     102.787  94.473 111.806  1.00  0.00     0.104 A 
ATOM     10  C   UNL     1     102.438  97.178 112.177  1.00  0.00     0.198 A 
ATOM     11  C   UNL     1     101.352  96.407 111.791  1.00  0.00     0.049 A 
ATOM     12  H   UNL     1     104.410  97.200 112.657  1.00  0.00     0.311 HD
BRANCH   7  13
ATOM     13  N   UNL     1     105.121  94.779 112.406  1.00  0.00    -0.257 N 
ATOM     14  O   UNL     1     107.790  94.012 112.839  1.00  0.00    -0.373 OA
ATOM     15  C   UNL     1     107.120  93.587 111.652  1.00  0.00     0.206 C 
ATOM     16  C   UNL     1     106.883  94.049 113.941  1.00  0.00     0.206 C 
ATOM     17  C   UNL     1     106.028  94.579 111.270  1.00  0.00     0.265 C 
ATOM     18  C   UNL     1     105.778  95.068 113.688  1.00  0.00     0.265 C 
ENDBRANCH   7  13
ENDBRANCH   5   6
ENDBRANCH   2   5
BRANCH   3  19
ATOM     19  C   UNL     1     100.155  93.584 107.478  1.00  0.00     0.073 C 
ATOM     20  C   UNL     1     100.542  94.304 106.401  1.00  0.00     0.034 C 
BRANCH  20  21
ATOM     21  C   UNL     1     100.897  93.750 105.104  1.00  0.00     0.064 A 
ATOM     22  N   UNL     1      99.893  93.671 104.201  1.00  0.00    -0.248 NA
ATOM     23  C   UNL     1     102.194  93.346 104.858  1.00  0.00     0.029 A 
ATOM     24  C   UNL     1     100.170  93.166 102.984  1.00  0.00     0.071 A 
ATOM     25  C   UNL     1     102.475  92.826 103.603  1.00  0.00     0.012 A 
ATOM     26  C   UNL     1     101.465  92.725 102.639  1.00  0.00     0.000 A 
ATOM     27  C   UNL     1      99.165  93.066 102.025  1.00  0.00     0.029 A 
ATOM     28  C   UNL     1     101.718  92.203 101.358  1.00  0.00     0.010 A 
ATOM     29  C   UNL     1      99.418  92.546 100.753  1.00  0.00     0.002 A 
ATOM     30  C   UNL     1     100.695  92.114 100.419  1.00  0.00     0.001 A 
ENDBRANCH  20  21
ENDBRANCH   3  19
TORSDOF 5
ENDMDL
MODEL 4
REMARK VINA RESULT:      -7.3      2.278     10.208
REMARK SMILES O=C(/C=C/c1ccc2ccccc2n1)NCc1cc[nH+]c(N2CCOCC2)c1
REMARK SMILES IDX 1 1 15 2 2 3 16 5 17 6 21 7 20 8 28 9 19 10 18 11 22 13
REMARK SMILES IDX 25 14 24 15 26 16 23 17 27 18 3 19 4 20 5 21 14 22 6 23
REMARK SMILES IDX 13 24 7 25 8 26 12 27 9 28 11 29 10 30
REMARK H PARENT 15 4 20 12
ROOT
ATOM      1  O   UNL     1      97.003 110.222 110.499  1.00  0.00    -0.270 OA
ATOM      2  N   UNL     1      96.478 108.016 109.988  1.00  0.00    -0.348 N 
ATOM      3  C   UNL     1      96.919 109.038 110.810  1.00  0.00     0.244 C 
ATOM      4  H   UNL     1      96.431 107.066 110.342  1.00  0.00     0.164 HD
ENDROOT
BRANCH   2   5
ATOM      5  C   UNL     1      96.052 108.232 108.622  1.00  0.00     0.152 C 
BRANCH   5   6
ATOM      6  C   UNL     1      96.932 107.513 107.640  1.00  0.00    -0.017 A 
ATOM      7  C   UNL     1      97.394 106.762 105.416  1.00  0.00     0.274 A 
ATOM      8  N   UNL     1      98.530 106.204 105.855  1.00  0.00    -0.248 N 
ATOM      9  C   UNL     1      96.562 107.434 106.301  1.00  0.00     0.104 A 
ATOM     10  C   UNL     1      98.909 106.264 107.138  1.00  0.00     0.198 A 
ATOM     11  C   UNL     1      98.117 106.923 108.067  1.00  0.00     0.049 A 
ATOM     12  H   UNL     1      99.129 105.703 105.200  1.00  0.00     0.311 HD
BRANCH   7  13
ATOM     13  N   UNL     1      97.074 106.653 104.058  1.00  0.00    -0.257 N 
ATOM     14  O   UNL     1      96.520 106.697 101.303  1.00  0.00    -0.373 OA
ATOM     15  C   UNL     1      95.456 106.482 102.231  1.00  0.00     0.206 C 
ATOM     16  C   UNL     1      97.722 106.083 101.767  1.00  0.00     0.206 C 
ATOM     17  C   UNL     1      95.776 107.133 103.572  1.00  0.00     0.265 C 
ATOM     18  C   UNL     1      98.170 106.712 103.081  1.00  0.00     0.265 C 
ENDBRANCH   7  13
ENDBRANCH   5   6
ENDBRANCH   2   5
BRANCH   3  19
ATOM     19  C   UNL     1      97.294 108.536 112.163  1.00  0.00     0.073 C 
ATOM     20  C   UNL     1      97.129 107.233 112.484  1.00  0.00     0.034 C 
BRANCH  20  21
ATOM     21  C   UNL     1      97.467 106.634 113.765  1.00  0.00     0.064 A 
ATOM     22  N   UNL     1      97.613 105.289 113.768  1.00  0.00    -0.248 NA
ATOM     23  C   UNL     1      97.620 107.433 114.881  1.00  0.00     0.029 A 
ATOM     24  C   UNL     1      97.928 104.687 114.931  1.00  0.00     0.071 A 
ATOM     25  C   UNL     1      97.943 106.808 116.076  1.00  0.00     0.012 A 
ATOM     26  C   UNL     1      98.103 105.417 116.124  1.00  0.00     0.000 A 
ATOM     27  C   UNL     1      98.087 103.304 114.978  1.00  0.00     0.029 A 
ATOM     28  C   UNL     1      98.431 104.755 117.320  1.00  0.00     0.010 A 
ATOM     29  C   UNL     1      98.412 102.645 116.167  1.00  0.00     0.002 A 
ATOM     30  C   UNL     1      98.584 103.371 117.339  1.00  0.00     0.001 A 
ENDBRANCH  20  21
ENDBRANCH   3  19
TORSDOF 5
ENDMDL
MODEL 5
REMARK VINA RESULT:      -7.2     11.598     13.518
REMARK SMILES O=C(/C=C/c1ccc2ccccc2n1)NCc1cc[nH+]c(N2CCOCC2)c1
REMARK SMILES IDX 1 1 15 2 2 3 16 5 17 6 21 7 20 8 28 9 19 10 18 11 22 13
REMARK SMILES IDX 25 14 24 15 26 16 23 17 27 18 3 19 4 20 5 21 14 22 6 23
REMARK SMILES IDX 13 24 7 25 8 26 12 27 9 28 11 29 10 30
REMARK H PARENT 15 4 20 12
ROOT
ATOM      1  O   UNL     1      98.226  96.208 110.056  1.00  0.00    -0.270 OA
ATOM      2  N   UNL     1     100.431  95.506 109.840  1.00  0.00    -0.348 N 
ATOM      3  C   UNL     1      99.152  95.770 109.381  1.00  0.00     0.244 C 
ATOM      4  H   UNL     1     101.137  95.158 109.198  1.00  0.00     0.164 HD
ENDROOT
BRANCH   2   5
ATOM      5  C   UNL     1     100.836  95.721 111.212  1.00  0.00     0.152 C 
BRANCH   5   6
ATOM      6  C   UNL     1     101.595  94.548 111.763  1.00  0.00    -0.017 A 
ATOM      7  C   UNL     1     103.652  93.518 112.417  1.00  0.00     0.274 A 
ATOM      8  N   UNL     1     102.975  92.415 112.762  1.00  0.00    -0.248 N 
ATOM      9  C   UNL     1     102.978  94.618 111.906  1.00  0.00     0.104 A 
ATOM     10  C   UNL     1     101.645  92.321 112.634  1.00  0.00     0.198 A 
ATOM     11  C   UNL     1     100.918  93.389 112.129  1.00  0.00     0.049 A 
ATOM     12  H   UNL     1     103.481  91.608 113.125  1.00  0.00     0.311 HD
BRANCH   7  13
ATOM     13  N   UNL     1     105.042  93.531 112.585  1.00  0.00    -0.257 N 
ATOM     14  O   UNL     1     107.802  93.813 113.037  1.00  0.00    -0.373 OA
ATOM     15  C   UNL     1     107.320  93.666 111.702  1.00  0.00     0.206 C 
ATOM     16  C   UNL     1     107.018  93.034 113.941  1.00  0.00     0.206 C 
ATOM     17  C   UNL     1     105.893  94.190 111.587  1.00  0.00     0.265 C 
ATOM     18  C   UNL     1     105.575  93.523 113.954  1.00  0.00     0.265 C 
ENDBRANCH   7  13
ENDBRANCH   5   6
ENDBRANCH   2   5
BRANCH   3  19
ATOM     19  C   UNL     1      99.011  95.461 107.930  1.00  0.00     0.073 C 
ATOM     20  C   UNL     1      99.917  94.677 107.302  1.00  0.00     0.034 C 
BRANCH  20  21
ATOM     21  C   UNL     1      99.873  94.304 105.897  1.00  0.00     0.064 A 
ATOM     22  N   UNL     1     100.961  93.652 105.425  1.00  0.00    -0.248 NA
ATOM     23  C   UNL     1      98.766  94.617 105.134  1.00  0.00     0.029 A 
ATOM     24  C   UNL     1     100.969  93.283 104.130  1.00  0.00     0.071 A 
ATOM     25  C   UNL     1      98.779  94.236 103.800  1.00  0.00     0.012 A 
ATOM     26  C   UNL     1      99.885  93.559 103.271  1.00  0.00     0.000 A 
ATOM     27  C   UNL     1     102.069  92.611 103.604  1.00  0.00     0.029 A 
ATOM     28  C   UNL     1      99.928  93.159 101.923  1.00  0.00     0.010 A 
ATOM     29  C   UNL     1     102.112  92.214 102.264  1.00  0.00     0.002 A 
ATOM     30  C   UNL     1     101.041  92.489 101.423  1.00  0.00     0.001 A 
ENDBRANCH  20  21
ENDBRANCH   3  19
TORSDOF 5
ENDMDL
MODEL 6
REMARK VINA RESULT:      -6.9     12.650     13.835
REMARK SMILES O=C(/C=C/c1ccc2ccccc2n1)NCc1cc[nH+]c(N2CCOCC2)c1
REMARK SMILES IDX 1 1 15 2 2 3 16 5 17 6 21 7 20 8 28 9 19 10 18 11 22 13
REMARK SMILES IDX 25 14 24 15 26 16 23 17 27 18 3 19 4 20 5 21 14 22 6 23
REMARK SMILES IDX 13 24 7 25 8 26 12 27 9 28 11 29 10 30
REMARK H PARENT 15 4 20 12
ROOT
ATOM      1  O   UNL     1      99.503  94.909 108.608  1.00  0.00    -0.270 OA
ATOM      2  N   UNL     1     100.116  92.838 109.467  1.00  0.00    -0.348 N 
ATOM      3  C   UNL     1      99.897  93.757 108.455  1.00  0.00     0.244 C 
ATOM      4  H   UNL     1     100.459  91.909 109.242  1.00  0.00     0.164 HD
ENDROOT
BRANCH   2   5
ATOM      5  C   UNL     1      99.894  93.138 110.865  1.00  0.00     0.152 C 
BRANCH   5   6
ATOM      6  C   UNL     1     101.173  93.124 111.652  1.00  0.00    -0.017 A 
ATOM      7  C   UNL     1     103.301  94.076 112.188  1.00  0.00     0.274 A 
ATOM      8  N   UNL     1     103.500  93.096 113.080  1.00  0.00    -0.248 N 
ATOM      9  C   UNL     1     102.128  94.115 111.447  1.00  0.00     0.104 A 
ATOM     10  C   UNL     1     102.598  92.130 113.296  1.00  0.00     0.198 A 
ATOM     11  C   UNL     1     101.407  92.119 112.585  1.00  0.00     0.049 A 
ATOM     12  H   UNL     1     104.369  93.069 113.611  1.00  0.00     0.311 HD
BRANCH   7  13
ATOM     13  N   UNL     1     104.296  95.047 112.026  1.00  0.00    -0.257 N 
ATOM     14  O   UNL     1     106.429  96.874 111.913  1.00  0.00    -0.373 OA
ATOM     15  C   UNL     1     105.115  97.345 112.210  1.00  0.00     0.206 C 
ATOM     16  C   UNL     1     106.375  95.798 110.976  1.00  0.00     0.206 C 
ATOM     17  C   UNL     1     104.289  96.247 112.870  1.00  0.00     0.265 C 
ATOM     18  C   UNL     1     105.622  94.613 111.567  1.00  0.00     0.265 C 
ENDBRANCH   7  13
ENDBRANCH   5   6
ENDBRANCH   2   5
BRANCH   3  19
ATOM     19  C   UNL     1     100.206  93.186 107.114  1.00  0.00     0.073 C 
ATOM     20  C   UNL     1     100.542  93.993 106.082  1.00  0.00     0.034 C 
BRANCH  20  21
ATOM     21  C   UNL     1     100.870  93.546 104.738  1.00  0.00     0.064 A 
ATOM     22  N   UNL     1      99.872  93.625 103.829  1.00  0.00    -0.248 NA
ATOM     23  C   UNL     1     102.138  93.078 104.457  1.00  0.00     0.029 A 
ATOM     24  C   UNL     1     100.126  93.224 102.569  1.00  0.00     0.071 A 
ATOM     25  C   UNL     1     102.396  92.665 103.158  1.00  0.00     0.012 A 
ATOM     26  C   UNL     1     101.390  92.730 102.186  1.00  0.00     0.000 A 
ATOM     27  C   UNL     1      99.126  93.288 101.602  1.00  0.00     0.029 A 
ATOM     28  C   UNL     1     101.620  92.319 100.861  1.00  0.00     0.010 A 
ATOM     29  C   UNL     1      99.354  92.879 100.285  1.00  0.00     0.002 A 
ATOM     30  C   UNL     1     100.602  92.394  99.914  1.00  0.00     0.001 A 
ENDBRANCH  20  21
ENDBRANCH   3  19
TORSDOF 5
ENDMDL
MODEL 7
REMARK VINA RESULT:      -6.8     11.537     13.198
REMARK SMILES O=C(/C=C/c1ccc2ccccc2n1)NCc1cc[nH+]c(N2CCOCC2)c1
REMARK SMILES IDX 1 1 15 2 2 3 16 5 17 6 21 7 20 8 28 9 19 10 18 11 22 13
REMARK SMILES IDX 25 14 24 15 26 16 23 17 27 18 3 19 4 20 5 21 14 22 6 23
REMARK SMILES IDX 13 24 7 25 8 26 12 27 9 28 11 29 10 30
REMARK H PARENT 15 4 20 12
ROOT
ATOM      1  O   UNL     1      98.177  95.946 109.880  1.00  0.00    -0.270 OA
ATOM      2  N   UNL     1     100.479  95.629 109.878  1.00  0.00    -0.348 N 
ATOM      3  C   UNL     1      99.218  95.640 109.308  1.00  0.00     0.244 C 
ATOM      4  H   UNL     1     101.286  95.374 109.316  1.00  0.00     0.164 HD
ENDROOT
BRANCH   2   5
ATOM      5  C   UNL     1     100.724  95.986 111.258  1.00  0.00     0.152 C 
BRANCH   5   6
ATOM      6  C   UNL     1     101.463  94.906 111.994  1.00  0.00    -0.017 A 
ATOM      7  C   UNL     1     103.510  93.859 112.655  1.00  0.00     0.274 A 
ATOM      8  N   UNL     1     102.806  92.941 113.330  1.00  0.00    -0.248 N 
ATOM      9  C   UNL     1     102.854  94.870 111.967  1.00  0.00     0.104 A 
ATOM     10  C   UNL     1     101.468  92.951 113.373  1.00  0.00     0.198 A 
ATOM     11  C   UNL     1     100.759  93.938 112.704  1.00  0.00     0.049 A 
ATOM     12  H   UNL     1     103.297  92.195 113.824  1.00  0.00     0.311 HD
BRANCH   7  13
ATOM     13  N   UNL     1     104.907  93.774 112.665  1.00  0.00    -0.257 N 
ATOM     14  O   UNL     1     107.713  93.862 112.791  1.00  0.00    -0.373 OA
ATOM     15  C   UNL     1     107.071  93.714 111.525  1.00  0.00     0.206 C 
ATOM     16  C   UNL     1     106.986  93.169 113.806  1.00  0.00     0.206 C 
ATOM     17  C   UNL     1     105.681  94.339 111.554  1.00  0.00     0.265 C 
ATOM     18  C   UNL     1     105.592  93.764 113.964  1.00  0.00     0.265 C 
ENDBRANCH   7  13
ENDBRANCH   5   6
ENDBRANCH   2   5
BRANCH   3  19
ATOM     19  C   UNL     1      99.255  95.232 107.875  1.00  0.00     0.073 C 
ATOM     20  C   UNL     1     100.304  94.532 107.386  1.00  0.00     0.034 C 
BRANCH  20  21
ATOM     21  C   UNL     1     100.440  94.075 106.012  1.00  0.00     0.064 A 
ATOM     22  N   UNL     1      99.477  94.484 105.154  1.00  0.00    -0.248 NA
ATOM     23  C   UNL     1     101.507  93.275 105.654  1.00  0.00     0.029 A 
ATOM     24  C   UNL     1      99.559  94.088 103.870  1.00  0.00     0.071 A 
ATOM     25  C   UNL     1     101.587  92.869 104.330  1.00  0.00     0.012 A 
ATOM     26  C   UNL     1     100.611  93.269 103.409  1.00  0.00     0.000 A 
ATOM     27  C   UNL     1      98.588  94.486 102.955  1.00  0.00     0.029 A 
ATOM     28  C   UNL     1     100.665  92.875 102.061  1.00  0.00     0.010 A 
ATOM     29  C   UNL     1      98.641  94.093 101.614  1.00  0.00     0.002 A 
ATOM     30  C   UNL     1      99.680  93.287 101.167  1.00  0.00     0.001 A 
ENDBRANCH  20  21
ENDBRANCH   3  19
TORSDOF 5
ENDMDL
MODEL 8
REMARK VINA RESULT:      -6.7      1.687      2.219
REMARK SMILES O=C(/C=C/c1ccc2ccccc2n1)NCc1cc[nH+]c(N2CCOCC2)c1
REMARK SMILES IDX 1 1 15 2 2 3 16 5 17 6 21 7 20 8 28 9 19 10 18 11 22 13
REMARK SMILES IDX 25 14 24 15 26 16 23 17 27 18 3 19 4 20 5 21 14 22 6 23
REMARK SMILES IDX 13 24 7 25 8 26 12 27 9 28 11 29 10 30
REMARK H PARENT 15 4 20 12
ROOT
ATOM      1  O   UNL     1      99.057 106.908 109.725  1.00  0.00    -0.270 OA
ATOM      2  N   UNL     1      97.430 108.422 110.406  1.00  0.00    -0.348 N 
ATOM      3  C   UNL     1      98.038 107.557 109.512  1.00  0.00     0.244 C 
ATOM      4  H   UNL     1      96.577 108.905 110.141  1.00  0.00     0.164 HD
ENDROOT
BRANCH   2   5
ATOM      5  C   UNL     1      97.943 108.670 111.736  1.00  0.00     0.152 C 
BRANCH   5   6
ATOM      6  C   UNL     1      97.115 107.997 112.792  1.00  0.00    -0.017 A 
ATOM      7  C   UNL     1      96.469 106.036 114.000  1.00  0.00     0.274 A 
ATOM      8  N   UNL     1      95.605 106.774 114.710  1.00  0.00    -0.248 N 
ATOM      9  C   UNL     1      97.249 106.631 113.018  1.00  0.00     0.104 A 
ATOM     10  C   UNL     1      95.455 108.090 114.512  1.00  0.00     0.198 A 
ATOM     11  C   UNL     1      96.209 108.738 113.544  1.00  0.00     0.049 A 
ATOM     12  H   UNL     1      95.028 106.326 115.421  1.00  0.00     0.311 HD
BRANCH   7  13
ATOM     13  N   UNL     1      96.564 104.667 114.273  1.00  0.00    -0.257 N 
ATOM     14  O   UNL     1      96.931 101.984 115.027  1.00  0.00    -0.373 OA
ATOM     15  C   UNL     1      97.305 102.403 113.715  1.00  0.00     0.206 C 
ATOM     16  C   UNL     1      95.764 102.682 115.463  1.00  0.00     0.206 C 
ATOM     17  C   UNL     1      97.668 103.883 113.709  1.00  0.00     0.265 C 
ATOM     18  C   UNL     1      96.041 104.178 115.556  1.00  0.00     0.265 C 
ENDBRANCH   7  13
ENDBRANCH   5   6
ENDBRANCH   2   5
BRANCH   3  19
ATOM     19  C   UNL     1      97.300 107.489 108.219  1.00  0.00     0.073 C 
ATOM     20  C   UNL     1      97.958 107.251 107.062  1.00  0.00     0.034 C 
BRANCH  20  21
ATOM     21  C   UNL     1      97.341 107.155 105.749  1.00  0.00     0.064 A 
ATOM     22  N   UNL     1      98.164 106.806 104.733  1.00  0.00    -0.248 NA
ATOM     23  C   UNL     1      95.993 107.412 105.600  1.00  0.00     0.029 A 
ATOM     24  C   UNL     1      97.639 106.703 103.497  1.00  0.00     0.071 A 
ATOM     25  C   UNL     1      95.457 107.305 104.325  1.00  0.00     0.012 A 
ATOM     26  C   UNL     1      96.274 106.947 103.245  1.00  0.00     0.000 A 
ATOM     27  C   UNL     1      98.452 106.347 102.424  1.00  0.00     0.029 A 
ATOM     28  C   UNL     1      95.761 106.830 101.941  1.00  0.00     0.010 A 
ATOM     29  C   UNL     1      97.942 106.231 101.127  1.00  0.00     0.002 A 
ATOM     30  C   UNL     1      96.596 106.473 100.886  1.00  0.00     0.001 A 
ENDBRANCH  20  21
ENDBRANCH   3  19
TORSDOF 5
ENDMDL
MODEL 9
REMARK VINA RESULT:      -6.7     10.953     14.967
REMARK SMILES O=C(/C=C/c1ccc2ccccc2n1)NCc1cc[nH+]c(N2CCOCC2)c1
REMARK SMILES IDX 1 1 15 2 2 3 16 5 17 6 21 7 20 8 28 9 19 10 18 11 22 13
REMARK SMILES IDX 25 14 24 15 26 16 23 17 27 18 3 19 4 20 5 21 14 22 6 23
REMARK SMILES IDX 13 24 7 25 8 26 12 27 9 28 11 29 10 30
REMARK H PARENT 15 4 20 12
ROOT
ATOM      1  O   UNL     1      98.184  96.188 111.353  1.00  0.00    -0.270 OA
ATOM      2  N   UNL     1      98.971  95.807 109.199  1.00  0.00    -0.348 N 
ATOM      3  C   UNL     1      99.085  95.888 110.576  1.00  0.00     0.244 C 
ATOM      4  H   UNL     1      99.774  95.535 108.640  1.00  0.00     0.164 HD
ENDROOT
BRANCH   2   5
ATOM      5  C   UNL     1      97.737  96.077 108.493  1.00  0.00     0.152 C 
BRANCH   5   6
ATOM      6  C   UNL     1      97.789  95.603 107.070  1.00  0.00    -0.017 A 
ATOM      7  C   UNL     1      98.957  94.561 105.261  1.00  0.00     0.274 A 
ATOM      8  N   UNL     1      97.885  94.746 104.480  1.00  0.00    -0.248 N 
ATOM      9  C   UNL     1      98.937  94.987 106.582  1.00  0.00     0.104 A 
ATOM     10  C   UNL     1      96.768  95.337 104.923  1.00  0.00     0.198 A 
ATOM     11  C   UNL     1      96.691  95.782 106.235  1.00  0.00     0.049 A 
ATOM     12  H   UNL     1      97.913  94.440 103.508  1.00  0.00     0.311 HD
BRANCH   7  13
ATOM     13  N   UNL     1     100.083  93.933 104.717  1.00  0.00    -0.257 N 
ATOM     14  O   UNL     1     102.235  92.430 103.711  1.00  0.00    -0.373 OA
ATOM     15  C   UNL     1     102.474  93.410 104.721  1.00  0.00     0.206 C 
ATOM     16  C   UNL     1     101.207  92.867 102.821  1.00  0.00     0.206 C 
ATOM     17  C   UNL     1     101.228  93.611 105.576  1.00  0.00     0.265 C 
ATOM     18  C   UNL     1      99.891  93.036 103.569  1.00  0.00     0.265 C 
ENDBRANCH   7  13
ENDBRANCH   5   6
ENDBRANCH   2   5
BRANCH   3  19
ATOM     19  C   UNL     1     100.464  95.559 111.036  1.00  0.00     0.073 C 
ATOM     20  C   UNL     1     101.197  96.467 111.720  1.00  0.00     0.034 C 
BRANCH  20  21
ATOM     21  C   UNL     1     102.544  96.251 112.223  1.00  0.00     0.064 A 
ATOM     22  N   UNL     1     103.065  95.021 112.010  1.00  0.00    -0.248 NA
ATOM     23  C   UNL     1     103.210  97.272 112.871  1.00  0.00     0.029 A 
ATOM     24  C   UNL     1     104.310  94.771 112.457  1.00  0.00     0.071 A 
ATOM     25  C   UNL     1     104.493  97.010 113.330  1.00  0.00     0.012 A 
ATOM     26  C   UNL     1     105.069  95.750 113.131  1.00  0.00     0.000 A 
ATOM     27  C   UNL     1     104.883  93.517 112.259  1.00  0.00     0.029 A 
ATOM     28  C   UNL     1     106.367  95.454 113.583  1.00  0.00     0.010 A 
ATOM     29  C   UNL     1     106.173  93.223 112.709  1.00  0.00     0.002 A 
ATOM     30  C   UNL     1     106.916  94.191 113.373  1.00  0.00     0.001 A 
ENDBRANCH  20  21
ENDBRANCH   3  19
TORSDOF 5
ENDMDL
MODEL 10
REMARK VINA RESULT:      -6.7     11.581     15.655
REMARK SMILES O=C(/C=C/c1ccc2ccccc2n1)NCc1cc[nH+]c(N2CCOCC2)c1
REMARK SMILES IDX 1 1 15 2 2 3 16 5 17 6 21 7 20 8 28 9 19 10 18 11 22 13
REMARK SMILES IDX 25 14 24 15 26 16 23 17 27 18 3 19 4 20 5 21 14 22 6 23
REMARK SMILES IDX 13 24 7 25 8 26 12 27 9 28 11 29 10 30
REMARK H PARENT 15 4 20 12
ROOT
ATOM      1  O   UNL     1      99.639  96.012 110.792  1.00  0.00    -0.270 OA
ATOM      2  N   UNL     1      99.166  93.784 110.328  1.00  0.00    -0.348 N 
ATOM      3  C   UNL     1      99.923  94.820 110.848  1.00  0.00     0.244 C 
ATOM      4  H   UNL     1      99.479  92.824 110.438  1.00  0.00     0.164 HD
ENDROOT
BRANCH   2   5
ATOM      5  C   UNL     1      97.913  93.994 109.636  1.00  0.00     0.152 C 
BRANCH   5   6
ATOM      6  C   UNL     1      98.124  94.478 108.230  1.00  0.00    -0.017 A 
ATOM      7  C   UNL     1      99.257  94.346 106.128  1.00  0.00     0.274 A 
ATOM      8  N   UNL     1      98.507  95.360 105.675  1.00  0.00    -0.248 N 
ATOM      9  C   UNL     1      99.084  93.877 107.422  1.00  0.00     0.104 A 
ATOM     10  C   UNL     1      97.577  95.956 106.431  1.00  0.00     0.198 A 
ATOM     11  C   UNL     1      97.360  95.529 107.733  1.00  0.00     0.049 A 
ATOM     12  H   UNL     1      98.650  95.705 104.727  1.00  0.00     0.311 HD
BRANCH   7  13
ATOM     13  N   UNL     1     100.206  93.779 105.270  1.00  0.00    -0.257 N 
ATOM     14  O   UNL     1     102.029  92.391 103.642  1.00  0.00    -0.373 OA
ATOM     15  C   UNL     1     102.518  93.304 104.624  1.00  0.00     0.206 C 
ATOM     16  C   UNL     1     100.807  92.868 103.079  1.00  0.00     0.206 C 
ATOM     17  C   UNL     1     101.534  93.421 105.782  1.00  0.00     0.265 C 
ATOM     18  C   UNL     1      99.727  92.959 104.149  1.00  0.00     0.265 C 
ENDBRANCH   7  13
ENDBRANCH   5   6
ENDBRANCH   2   5
BRANCH   3  19
ATOM     19  C   UNL     1     101.162  94.321 111.509  1.00  0.00     0.073 C 
ATOM     20  C   UNL     1     102.082  95.187 111.990  1.00  0.00     0.034 C 
BRANCH  20  21
ATOM     21  C   UNL     1     103.318  94.814 112.659  1.00  0.00     0.064 A 
ATOM     22  N   UNL     1     104.365  94.528 111.851  1.00  0.00    -0.248 NA
ATOM     23  C   UNL     1     103.370  94.771 114.038  1.00  0.00     0.029 A 
ATOM     24  C   UNL     1     105.533  94.177 112.423  1.00  0.00     0.071 A 
ATOM     25  C   UNL     1     104.575  94.408 114.623  1.00  0.00     0.012 A 
ATOM     26  C   UNL     1     105.683  94.103 113.823  1.00  0.00     0.000 A 
ATOM     27  C   UNL     1     106.634  93.874 111.627  1.00  0.00     0.029 A 
ATOM     28  C   UNL     1     106.918  93.734 114.385  1.00  0.00     0.010 A 
ATOM     29  C   UNL     1     107.861  93.505 112.186  1.00  0.00     0.002 A 
ATOM     30  C   UNL     1     108.003  93.435 113.566  1.00  0.00     0.001 A 
ENDBRANCH  20  21
ENDBRANCH   3  19
TORSDOF 5
ENDMDL
MODEL 11
REMARK VINA RESULT:      -6.6     12.179     13.720
REMARK SMILES O=C(/C=C/c1ccc2ccccc2n1)NCc1cc[nH+]c(N2CCOCC2)c1
REMARK SMILES IDX 1 1 15 2 2 3 16 5 17 6 21 7 20 8 28 9 19 10 18 11 22 13
REMARK SMILES IDX 25 14 24 15 26 16 23 17 27 18 3 19 4 20 5 21 14 22 6 23
REMARK SMILES IDX 13 24 7 25 8 26 12 27 9 28 11 29 10 30
REMARK H PARENT 15 4 20 12
ROOT
ATOM      1  O   UNL     1     100.238  96.070 110.678  1.00  0.00    -0.270 OA
ATOM      2  N   UNL     1     100.260  93.860 111.399  1.00  0.00    -0.348 N 
ATOM      3  C   UNL     1     100.240  94.865 110.447  1.00  0.00     0.244 C 
ATOM      4  H   UNL     1     100.276  92.887 111.107  1.00  0.00     0.164 HD
ENDROOT
BRANCH   2   5
ATOM      5  C   UNL     1     100.278  94.122 112.821  1.00  0.00     0.152 C 
BRANCH   5   6
ATOM      6  C   UNL     1     101.460  93.486 113.494  1.00  0.00    -0.017 A 
ATOM      7  C   UNL     1     103.823  93.179 113.705  1.00  0.00     0.274 A 
ATOM      8  N   UNL     1     103.608  92.326 114.716  1.00  0.00    -0.248 N 
ATOM      9  C   UNL     1     102.750  93.783 113.065  1.00  0.00     0.104 A 
ATOM     10  C   UNL     1     102.378  92.022 115.148  1.00  0.00     0.198 A 
ATOM     11  C   UNL     1     101.267  92.596 114.546  1.00  0.00     0.049 A 
ATOM     12  H   UNL     1     104.402  91.878 115.173  1.00  0.00     0.311 HD
BRANCH   7  13
ATOM     13  N   UNL     1     105.142  93.442 113.319  1.00  0.00    -0.257 N 
ATOM     14  O   UNL     1     107.763  93.762 112.357  1.00  0.00    -0.373 OA
ATOM     15  C   UNL     1     107.555  93.404 113.722  1.00  0.00     0.206 C 
ATOM     16  C   UNL     1     106.738  94.649 111.909  1.00  0.00     0.206 C 
ATOM     17  C   UNL     1     106.240  92.649 113.883  1.00  0.00     0.265 C 
ATOM     18  C   UNL     1     105.378  93.964 111.966  1.00  0.00     0.265 C 
ENDBRANCH   7  13
ENDBRANCH   5   6
ENDBRANCH   2   5
BRANCH   3  19
ATOM     19  C   UNL     1     100.226  94.315 109.062  1.00  0.00     0.073 C 
ATOM     20  C   UNL     1      99.836  95.083 108.020  1.00  0.00     0.034 C 
BRANCH  20  21
ATOM     21  C   UNL     1      99.791  94.654 106.631  1.00  0.00     0.064 A 
ATOM     22  N   UNL     1     100.910  94.057 106.161  1.00  0.00    -0.248 NA
ATOM     23  C   UNL     1      98.653  94.866 105.880  1.00  0.00     0.029 A 
ATOM     24  C   UNL     1     100.919  93.641 104.880  1.00  0.00     0.071 A 
ATOM     25  C   UNL     1      98.666  94.437 104.560  1.00  0.00     0.012 A 
ATOM     26  C   UNL     1      99.804  93.813 104.034  1.00  0.00     0.000 A 
ATOM     27  C   UNL     1     102.051  93.021 104.356  1.00  0.00     0.029 A 
ATOM     28  C   UNL     1      99.849  93.366 102.701  1.00  0.00     0.010 A 
ATOM     29  C   UNL     1     102.095  92.577 103.032  1.00  0.00     0.002 A 
ATOM     30  C   UNL     1     100.994  92.751 102.203  1.00  0.00     0.001 A 
ENDBRANCH  20  21
ENDBRANCH   3  19
TORSDOF 5
ENDMDL
MODEL 12
REMARK VINA RESULT:      -6.5     10.103     14.038
REMARK SMILES O=C(/C=C/c1ccc2ccccc2n1)NCc1cc[nH+]c(N2CCOCC2)c1
REMARK SMILES IDX 1 1 15 2 2 3 16 5 17 6 21 7 20 8 28 9 19 10 18 11 22 13
REMARK SMILES IDX 25 14 24 15 26 16 23 17 27 18 3 19 4 20 5 21 14 22 6 23
REMARK SMILES IDX 13 24 7 25 8 26 12 27 9 28 11 29 10 30
REMARK H PARENT 15 4 20 12
ROOT
ATOM      1  O   UNL     1      97.887  96.857 113.375  1.00  0.00    -0.270 OA
ATOM      2  N   UNL     1      98.414  95.995 111.282  1.00  0.00    -0.348 N 
ATOM      3  C   UNL     1      98.698  96.408 112.573  1.00  0.00     0.244 C 
ATOM      4  H   UNL     1      99.155  95.622 110.696  1.00  0.00     0.164 HD
ENDROOT
BRANCH   2   5
ATOM      5  C   UNL     1      97.086  96.049 110.712  1.00  0.00     0.152 C 
BRANCH   5   6
ATOM      6  C   UNL     1      97.123  96.188 109.217  1.00  0.00    -0.017 A 
ATOM      7  C   UNL     1      98.069  95.626 107.094  1.00  0.00     0.274 A 
ATOM      8  N   UNL     1      97.190  96.444 106.500  1.00  0.00    -0.248 N 
ATOM      9  C   UNL     1      98.059  95.476 108.473  1.00  0.00     0.104 A 
ATOM     10  C   UNL     1      96.279  97.141 107.192  1.00  0.00     0.198 A 
ATOM     11  C   UNL     1      96.221  97.030 108.573  1.00  0.00     0.049 A 
ATOM     12  H   UNL     1      97.213  96.556 105.487  1.00  0.00     0.311 HD
BRANCH   7  13
ATOM     13  N   UNL     1      98.986  94.934 106.295  1.00  0.00    -0.257 N 
ATOM     14  O   UNL     1     100.687  93.311 104.755  1.00  0.00    -0.373 OA
ATOM     15  C   UNL     1     101.223  94.046 105.854  1.00  0.00     0.206 C 
ATOM     16  C   UNL     1      99.654  94.055 104.109  1.00  0.00     0.206 C 
ATOM     17  C   UNL     1     100.151  94.287 106.910  1.00  0.00     0.265 C 
ATOM     18  C   UNL     1      98.493  94.296 105.066  1.00  0.00     0.265 C 
ENDBRANCH   7  13
ENDBRANCH   5   6
ENDBRANCH   2   5
BRANCH   3  19
ATOM     19  C   UNL     1     100.143  96.242 112.901  1.00  0.00     0.073 C 
ATOM     20  C   UNL     1     101.082  96.313 111.931  1.00  0.00     0.034 C 
BRANCH  20  21
ATOM     21  C   UNL     1     102.515  96.175 112.137  1.00  0.00     0.064 A 
ATOM     22  N   UNL     1     103.003  94.916 112.069  1.00  0.00    -0.248 NA
ATOM     23  C   UNL     1     103.287  97.293 112.383  1.00  0.00     0.029 A 
ATOM     24  C   UNL     1     104.326  94.736 112.252  1.00  0.00     0.071 A 
ATOM     25  C   UNL     1     104.648  97.103 112.572  1.00  0.00     0.012 A 
ATOM     26  C   UNL     1     105.195  95.815 112.510  1.00  0.00     0.000 A 
ATOM     27  C   UNL     1     104.869  93.455 112.191  1.00  0.00     0.029 A 
ATOM     28  C   UNL     1     106.570  95.590 112.697  1.00  0.00     0.010 A 
ATOM     29  C   UNL     1     106.236  93.231 112.377  1.00  0.00     0.002 A 
ATOM     30  C   UNL     1     107.087  94.299 112.631  1.00  0.00     0.001 A 
ENDBRANCH  20  21
ENDBRANCH   3  19
TORSDOF 5
ENDMDL
MODEL 13
REMARK VINA RESULT:      -6.5     11.560     13.023
REMARK SMILES O=C(/C=C/c1ccc2ccccc2n1)NCc1cc[nH+]c(N2CCOCC2)c1
REMARK SMILES IDX 1 1 15 2 2 3 16 5 17 6 21 7 20 8 28 9 19 10 18 11 22 13
REMARK SMILES IDX 25 14 24 15 26 16 23 17 27 18 3 19 4 20 5 21 14 22 6 23
REMARK SMILES IDX 13 24 7 25 8 26 12 27 9 28 11 29 10 30
REMARK H PARENT 15 4 20 12
ROOT
ATOM      1  O   UNL     1      99.469  94.206 111.389  1.00  0.00    -0.270 OA
ATOM      2  N   UNL     1     101.074  95.750 110.725  1.00  0.00    -0.348 N 
ATOM      3  C   UNL     1     100.202  94.692 110.534  1.00  0.00     0.244 C 
ATOM      4  H   UNL     1     101.632  96.092 109.947  1.00  0.00     0.164 HD
ENDROOT
BRANCH   2   5
ATOM      5  C   UNL     1     101.229  96.425 111.995  1.00  0.00     0.152 C 
BRANCH   5   6
ATOM      6  C   UNL     1     102.641  96.353 112.500  1.00  0.00    -0.017 A 
ATOM      7  C   UNL     1     104.352  95.251 113.758  1.00  0.00     0.274 A 
ATOM      8  N   UNL     1     105.208  96.225 113.420  1.00  0.00    -0.248 N 
ATOM      9  C   UNL     1     103.041  95.290 113.305  1.00  0.00     0.104 A 
ATOM     10  C   UNL     1     104.850  97.258 112.648  1.00  0.00     0.198 A 
ATOM     11  C   UNL     1     103.553  97.349 112.166  1.00  0.00     0.049 A 
ATOM     12  H   UNL     1     106.166  96.193 113.767  1.00  0.00     0.311 HD
BRANCH   7  13
ATOM     13  N   UNL     1     104.810  94.206 114.568  1.00  0.00    -0.257 N 
ATOM     14  O   UNL     1     105.948  92.085 116.019  1.00  0.00    -0.373 OA
ATOM     15  C   UNL     1     104.654  91.925 115.439  1.00  0.00     0.206 C 
ATOM     16  C   UNL     1     106.130  93.425 116.476  1.00  0.00     0.206 C 
ATOM     17  C   UNL     1     104.504  92.816 114.211  1.00  0.00     0.265 C 
ATOM     18  C   UNL     1     106.065  94.401 115.307  1.00  0.00     0.265 C 
ENDBRANCH   7  13
ENDBRANCH   5   6
ENDBRANCH   2   5
BRANCH   3  19
ATOM     19  C   UNL     1     100.243  94.188 109.132  1.00  0.00     0.073 C 
ATOM     20  C   UNL     1      99.813  94.961 108.109  1.00  0.00     0.034 C 
BRANCH  20  21
ATOM     21  C   UNL     1      99.815  94.576 106.707  1.00  0.00     0.064 A 
ATOM     22  N   UNL     1     100.926  93.939 106.271  1.00  0.00    -0.248 NA
ATOM     23  C   UNL     1      98.726  94.866 105.910  1.00  0.00     0.029 A 
ATOM     24  C   UNL     1     100.977  93.561 104.979  1.00  0.00     0.071 A 
ATOM     25  C   UNL     1      98.783  94.475 104.580  1.00  0.00     0.012 A 
ATOM     26  C   UNL     1      99.914  93.813 104.088  1.00  0.00     0.000 A 
ATOM     27  C   UNL     1     102.103  92.903 104.490  1.00  0.00     0.029 A 
ATOM     28  C   UNL     1     100.002  93.404 102.746  1.00  0.00     0.010 A 
ATOM     29  C   UNL     1     102.190  92.497 103.156  1.00  0.00     0.002 A 
ATOM     30  C   UNL     1     101.139  92.748 102.282  1.00  0.00     0.001 A 
ENDBRANCH  20  21
ENDBRANCH   3  19
TORSDOF 5
ENDMDL
MODEL 14
REMARK VINA RESULT:      -6.4     11.649     16.144
REMARK SMILES O=C(/C=C/c1ccc2ccccc2n1)NCc1cc[nH+]c(N2CCOCC2)c1
REMARK SMILES IDX 1 1 15 2 2 3 16 5 17 6 21 7 20 8 28 9 19 10 18 11 22 13
REMARK SMILES IDX 25 14 24 15 26 16 23 17 27 18 3 19 4 20 5 21 14 22 6 23
REMARK SMILES IDX 13 24 7 25 8 26 12 27 9 28 11 29 10 30
REMARK H PARENT 15 4 20 12
ROOT
ATOM      1  O   UNL     1      98.894  95.981 111.216  1.00  0.00    -0.270 OA
ATOM      2  N   UNL     1     100.445  95.421 109.578  1.00  0.00    -0.348 N 
ATOM      3  C   UNL     1     100.032  95.676 110.874  1.00  0.00     0.244 C 
ATOM      4  H   UNL     1     101.410  95.161 109.396  1.00  0.00     0.164 HD
ENDROOT
BRANCH   2   5
ATOM      5  C   UNL     1      99.554  95.488 108.440  1.00  0.00     0.152 C 
BRANCH   5   6
ATOM      6  C   UNL     1      99.702  94.295 107.540  1.00  0.00    -0.017 A 
ATOM      7  C   UNL     1      99.750  93.326 105.354  1.00  0.00     0.274 A 
ATOM      8  N   UNL     1      99.968  92.125 105.905  1.00  0.00    -0.248 N 
ATOM      9  C   UNL     1      99.611  94.447 106.160  1.00  0.00     0.104 A 
ATOM     10  C   UNL     1     100.060  91.950 107.230  1.00  0.00     0.198 A 
ATOM     11  C   UNL     1      99.929  93.035 108.085  1.00  0.00     0.049 A 
ATOM     12  H   UNL     1     100.058  91.305 105.306  1.00  0.00     0.311 HD
BRANCH   7  13
ATOM     13  N   UNL     1      99.670  93.418 103.960  1.00  0.00    -0.257 N 
ATOM     14  O   UNL     1      99.719  93.787 101.174  1.00  0.00    -0.373 OA
ATOM     15  C   UNL     1      98.545  94.134 101.907  1.00  0.00     0.206 C 
ATOM     16  C   UNL     1     100.343  92.635 101.740  1.00  0.00     0.206 C 
ATOM     17  C   UNL     1      98.902  94.505 103.342  1.00  0.00     0.265 C 
ATOM     18  C   UNL     1     100.801  92.923 103.165  1.00  0.00     0.265 C 
ENDBRANCH   7  13
ENDBRANCH   5   6
ENDBRANCH   2   5
BRANCH   3  19
ATOM     19  C   UNL     1     101.152  95.535 111.848  1.00  0.00     0.073 C 
ATOM     20  C   UNL     1     102.131  94.625 111.644  1.00  0.00     0.034 C 
BRANCH  20  21
ATOM     21  C   UNL     1     103.272  94.408 112.519  1.00  0.00     0.064 A 
ATOM     22  N   UNL     1     104.452  94.164 111.904  1.00  0.00    -0.248 NA
ATOM     23  C   UNL     1     103.110  94.461 113.889  1.00  0.00     0.029 A 
ATOM     24  C   UNL     1     105.539  93.957 112.671  1.00  0.00     0.071 A 
ATOM     25  C   UNL     1     104.232  94.247 114.676  1.00  0.00     0.012 A 
ATOM     26  C   UNL     1     105.473  93.989 114.079  1.00  0.00     0.000 A 
ATOM     27  C   UNL     1     106.772  93.701 112.077  1.00  0.00     0.029 A 
ATOM     28  C   UNL     1     106.628  93.769 114.849  1.00  0.00     0.010 A 
ATOM     29  C   UNL     1     107.921  93.481 112.843  1.00  0.00     0.002 A 
ATOM     30  C   UNL     1     107.849  93.514 114.230  1.00  0.00     0.001 A 
ENDBRANCH  20  21
ENDBRANCH   3  19
TORSDOF 5
ENDMDL
MODEL 15
REMARK VINA RESULT:      -6.2      6.308     11.276
REMARK SMILES O=C(/C=C/c1ccc2ccccc2n1)NCc1cc[nH+]c(N2CCOCC2)c1
REMARK SMILES IDX 1 1 15 2 2 3 16 5 17 6 21 7 20 8 28 9 19 10 18 11 22 13
REMARK SMILES IDX 25 14 24 15 26 16 23 17 27 18 3 19 4 20 5 21 14 22 6 23
REMARK SMILES IDX 13 24 7 25 8 26 12 27 9 28 11 29 10 30
REMARK H PARENT 15 4 20 12
ROOT
ATOM      1  O   UNL     1      98.545  97.468 115.687  1.00  0.00    -0.270 OA
ATOM      2  N   UNL     1      99.711  99.464 115.928  1.00  0.00    -0.348 N 
ATOM      3  C   UNL     1      99.569  98.134 115.572  1.00  0.00     0.244 C 
ATOM      4  H   UNL     1     100.599  99.935 115.781  1.00  0.00     0.164 HD
ENDROOT
BRANCH   2   5
ATOM      5  C   UNL     1      98.636 100.247 116.496  1.00  0.00     0.152 C 
BRANCH   5   6
ATOM      6  C   UNL     1      97.998 101.146 115.477  1.00  0.00    -0.017 A 
ATOM      7  C   UNL     1      97.556 103.331 114.610  1.00  0.00     0.274 A 
ATOM      8  N   UNL     1      96.834 102.780 113.625  1.00  0.00    -0.248 N 
ATOM      9  C   UNL     1      98.159 102.525 115.566  1.00  0.00     0.104 A 
ATOM     10  C   UNL     1      96.663 101.456 113.517  1.00  0.00     0.198 A 
ATOM     11  C   UNL     1      97.242 100.602 114.443  1.00  0.00     0.049 A 
ATOM     12  H   UNL     1      96.386 103.381 112.935  1.00  0.00     0.311 HD
BRANCH   7  13
ATOM     13  N   UNL     1      97.685 104.724 114.648  1.00  0.00    -0.257 N 
ATOM     14  O   UNL     1      98.125 107.497 114.510  1.00  0.00    -0.373 OA
ATOM     15  C   UNL     1      98.464 106.790 115.703  1.00  0.00     0.206 C 
ATOM     16  C   UNL     1      96.952 106.942 113.915  1.00  0.00     0.206 C 
ATOM     17  C   UNL     1      98.795 105.336 115.387  1.00  0.00     0.265 C 
ATOM     18  C   UNL     1      97.199 105.497 113.497  1.00  0.00     0.265 C 
ENDBRANCH   7  13
ENDBRANCH   5   6
ENDBRANCH   2   5
BRANCH   3  19
ATOM     19  C   UNL     1     100.832  97.573 115.013  1.00  0.00     0.073 C 
ATOM     20  C   UNL     1     100.811  96.808 113.898  1.00  0.00     0.034 C 
BRANCH  20  21
ATOM     21  C   UNL     1     101.978  96.219 113.261  1.00  0.00     0.064 A 
ATOM     22  N   UNL     1     103.074  97.009 113.192  1.00  0.00    -0.248 NA
ATOM     23  C   UNL     1     101.921  94.929 112.775  1.00  0.00     0.029 A 
ATOM     24  C   UNL     1     104.182  96.509 112.612  1.00  0.00     0.071 A 
ATOM     25  C   UNL     1     103.064  94.418 112.178  1.00  0.00     0.012 A 
ATOM     26  C   UNL     1     104.221  95.202 112.085  1.00  0.00     0.000 A 
ATOM     27  C   UNL     1     105.332  97.289 112.520  1.00  0.00     0.029 A 
ATOM     28  C   UNL     1     105.396  94.713 111.486  1.00  0.00     0.010 A 
ATOM     29  C   UNL     1     106.500  96.803 111.924  1.00  0.00     0.002 A 
ATOM     30  C   UNL     1     106.531  95.514 111.406  1.00  0.00     0.001 A 
ENDBRANCH  20  21
ENDBRANCH   3  19
TORSDOF 5
ENDMDL
