REMARK VINA RESULT:      -9.6      0.000      0.000
REMARK SMILES Cc1nc(C)c2c(n1)N(Cc1ccc(-c3ccccc3-c3nnn[nH]3)cc1)C(=O)CC2
REMARK SMILES IDX 11 1 12 2 13 3 14 4 26 5 27 6 10 7 9 8 2 9 3 10 8 11 4 12
REMARK SMILES IDX 7 13 6 14 31 15 28 16 30 17 29 18 1 19 5 20 15 21 16 22
REMARK SMILES IDX 20 23 17 24 19 25 18 26 21 27 22 28 25 29 23 30 24 31
REMARK H PARENT 25 32
ROOT
ATOM      1  C   UNL     1     115.580  94.616 122.252  1.00  0.00    -0.028 A 
ATOM      2  C   UNL     1     116.328  95.592 122.930  1.00  0.00     0.006 A 
ATOM      3  C   UNL     1     117.579  95.985 122.447  1.00  0.00     0.009 A 
ATOM      4  C   UNL     1     118.103  95.403 121.282  1.00  0.00    -0.018 A 
ATOM      5  C   UNL     1     117.344  94.447 120.590  1.00  0.00     0.009 A 
ATOM      6  C   UNL     1     116.094  94.054 121.073  1.00  0.00     0.006 A 
ENDROOT
BRANCH   1   7
ATOM      7  C   UNL     1     114.259  94.145 122.801  1.00  0.00     0.162 C 
BRANCH   7   8
ATOM      8  N   UNL     1     113.389  95.295 123.094  1.00  0.00    -0.292 N 
ATOM      9  C   UNL     1     111.248  95.339 120.092  1.00  0.00     0.127 A 
ATOM     10  N   UNL     1     110.347  96.307 120.396  1.00  0.00    -0.238 NA
ATOM     11  N   UNL     1     112.226  95.027 120.977  1.00  0.00    -0.216 NA
ATOM     12  C   UNL     1     110.388  96.969 121.582  1.00  0.00     0.046 A 
ATOM     13  C   UNL     1     112.332  95.657 122.177  1.00  0.00     0.142 A 
ATOM     14  C   UNL     1     111.412  96.674 122.509  1.00  0.00     0.017 A 
ATOM     15  C   UNL     1     111.485  97.327 123.872  1.00  0.00     0.051 C 
ATOM     16  C   UNL     1     113.638  96.134 124.238  1.00  0.00     0.228 C 
ATOM     17  C   UNL     1     112.927  97.447 124.366  1.00  0.00     0.105 C 
ATOM     18  O   UNL     1     114.491  95.804 125.107  1.00  0.00    -0.274 OA
ATOM     19  C   UNL     1     111.199  94.662 118.764  1.00  0.00     0.090 C 
ATOM     20  C   UNL     1     109.340  98.009 121.856  1.00  0.00     0.067 C 
ENDBRANCH   7   8
ENDBRANCH   1   7
BRANCH   4  21
ATOM     21  C   UNL     1     119.440  95.801 120.787  1.00  0.00    -0.007 A 
ATOM     22  C   UNL     1     120.568  95.148 121.316  1.00  0.00     0.009 A 
ATOM     23  C   UNL     1     119.622  96.855 119.852  1.00  0.00     0.028 A 
ATOM     24  C   UNL     1     121.855  95.548 120.954  1.00  0.00     0.001 A 
ATOM     25  C   UNL     1     120.927  97.258 119.519  1.00  0.00     0.013 A 
ATOM     26  C   UNL     1     122.035  96.606 120.065  1.00  0.00     0.001 A 
BRANCH  23  27
ATOM     27  C   UNL     1     118.487  97.533 119.182  1.00  0.00     0.180 A 
ATOM     28  N   UNL     1     117.815  98.578 119.702  1.00  0.00    -0.109 NA
ATOM     29  N   UNL     1     118.021  97.250 117.952  1.00  0.00    -0.239 N 
ATOM     30  N   UNL     1     116.927  98.910 118.775  1.00  0.00    -0.024 NA
ATOM     31  N   UNL     1     117.051  98.115 117.723  1.00  0.00    -0.048 NA
ATOM     32  H   UNL     1     118.354  96.509 117.319  1.00  0.00     0.194 HD
ENDBRANCH  23  27
ENDBRANCH   4  21
TORSDOF 4
