REMARK VINA RESULT:     -11.2      0.000      0.000
REMARK SMILES O=C(C1CCCCC1)N1C[C@@H]2C[C@@H](C1)c1ccc(-c3ccccc3C[NH+]3CCOCC3)c(=O)n1C2
REMARK SMILES IDX 19 1 24 2 20 3 23 4 21 5 22 6 18 7 9 8 10 9 14 10 11 11
REMARK SMILES IDX 13 12 12 13 35 14 15 15 34 16 16 17 32 18 17 19 33 20 2 21
REMARK SMILES IDX 1 22 3 23 4 24 8 25 5 26 7 27 6 28 25 29 26 30 27 31 31 32
REMARK SMILES IDX 28 33 30 34 29 35
REMARK H PARENT 26 36
ROOT
ATOM      1  C   UNL     1     106.963 111.561  78.108  1.00  0.00    -0.004 A 
ATOM      2  C   UNL     1     106.828 110.729  76.995  1.00  0.00     0.014 A 
ATOM      3  C   UNL     1     105.840 111.880  78.875  1.00  0.00     0.009 A 
ATOM      4  C   UNL     1     105.577 110.218  76.651  1.00  0.00     0.010 A 
ATOM      5  C   UNL     1     104.589 111.369  78.532  1.00  0.00     0.001 A 
ATOM      6  C   UNL     1     104.458 110.537  77.420  1.00  0.00     0.001 A 
ENDROOT
BRANCH   1   7
ATOM      7  C   UNL     1     108.271 112.118  78.498  1.00  0.00     0.048 A 
ATOM      8  N   UNL     1     114.101 114.884  79.071  1.00  0.00    -0.341 N 
ATOM      9  C   UNL     1     113.173 115.764  78.233  1.00  0.00     0.125 C 
ATOM     10  C   UNL     1     113.515 113.700  79.830  1.00  0.00     0.129 C 
ATOM     11  C   UNL     1     111.680 115.914  78.752  1.00  0.00     0.029 C 
ATOM     12  C   UNL     1     112.023 113.817  79.647  1.00  0.00     0.056 C 
ATOM     13  C   UNL     1     111.639 115.237  80.094  1.00  0.00     0.019 C 
ATOM     14  C   UNL     1     110.551 115.212  77.883  1.00  0.00     0.131 C 
ATOM     15  C   UNL     1     110.744 113.144  79.338  1.00  0.00     0.026 A 
ATOM     16  N   UNL     1     109.983 113.895  78.411  1.00  0.00    -0.311 N 
ATOM     17  C   UNL     1     110.317 111.971  79.812  1.00  0.00     0.023 A 
ATOM     18  C   UNL     1     108.754 113.430  77.928  1.00  0.00     0.258 A 
ATOM     19  C   UNL     1     109.040 111.462  79.386  1.00  0.00     0.016 A 
ATOM     20  O   UNL     1     108.080 114.021  77.085  1.00  0.00    -0.269 OA
BRANCH   8  21
ATOM     21  C   UNL     1     115.475 115.127  79.015  1.00  0.00     0.225 C 
ATOM     22  O   UNL     1     116.024 115.800  78.141  1.00  0.00    -0.275 OA
BRANCH  21  23
ATOM     23  C   UNL     1     116.296 114.512  80.110  1.00  0.00     0.078 C 
ATOM     24  C   UNL     1     116.783 115.601  81.070  1.00  0.00     0.013 C 
ATOM     25  C   UNL     1     117.467 113.730  79.510  1.00  0.00     0.013 C 
ATOM     26  C   UNL     1     117.701 115.033  82.148  1.00  0.00     0.001 C 
ATOM     27  C   UNL     1     118.383 113.167  80.592  1.00  0.00     0.001 C 
ATOM     28  C   UNL     1     118.867 114.257  81.544  1.00  0.00     0.000 C 
ENDBRANCH  21  23
ENDBRANCH   8  21
ENDBRANCH   1   7
BRANCH   2  29
ATOM     29  C   UNL     1     108.005 110.366  76.149  1.00  0.00     0.299 C 
BRANCH  29  30
ATOM     30  N   UNL     1     108.311 111.384  75.088  1.00  0.00    -0.327 N 
ATOM     31  C   UNL     1     109.792 111.651  74.968  1.00  0.00     0.291 C 
ATOM     32  C   UNL     1     107.725 111.004  73.748  1.00  0.00     0.291 C 
ATOM     33  C   UNL     1     110.001 112.726  73.915  1.00  0.00     0.221 C 
ATOM     34  C   UNL     1     108.039 112.112  72.758  1.00  0.00     0.221 C 
ATOM     35  O   UNL     1     109.450 112.314  72.662  1.00  0.00    -0.370 OA
ATOM     36  H   UNL     1     107.861 112.264  75.376  1.00  0.00     0.348 HD
ENDBRANCH  29  30
ENDBRANCH   2  29
TORSDOF 5
