REMARK VINA RESULT:     -11.3      0.000      0.000
REMARK SMILES CN1CCN(c2cccc3c2=N/C(=C2\NNc4cc(C5=CC6=CC=CN[C@@H]6C=C5)ccc42)N=3)CC1
REMARK SMILES IDX 12 1 33 2 15 3 16 4 6 5 11 6 7 7 10 8 14 9 13 10 32 11 17 12
REMARK SMILES IDX 8 13 9 14 19 15 18 16 31 17 30 18 5 21 4 22 34 23 3 24 35 25
REMARK SMILES IDX 2 26 1 27 20 28 21 29 29 30 22 31 28 32 27 33 23 34 26 35
REMARK SMILES IDX 24 36 25 37
REMARK H PARENT 15 19 16 20 26 38
ROOT
ATOM      1  N   UNL     1     109.467 111.855  76.665  1.00  0.00    -0.223 NA
ATOM      2  N   UNL     1     111.636 111.850  75.823  1.00  0.00    -0.225 NA
ATOM      3  N   UNL     1     110.576 112.801  79.251  1.00  0.00    -0.296 N 
ATOM      4  N   UNL     1     111.362 113.266  80.246  1.00  0.00    -0.300 N 
ATOM      5  C   UNL     1     108.313 111.071  74.570  1.00  0.00     0.065 A 
ATOM      6  C   UNL     1     109.438 111.471  75.435  1.00  0.00     0.115 A 
ATOM      7  C   UNL     1     108.642 110.722  73.315  1.00  0.00     0.028 A 
ATOM      8  C   UNL     1     110.823 111.469  74.901  1.00  0.00     0.093 A 
ATOM      9  C   UNL     1     111.270 112.509  78.092  1.00  0.00     0.108 C 
ATOM     10  C   UNL     1     110.810 112.088  76.907  1.00  0.00     0.179 C 
ATOM     11  C   UNL     1     112.686 112.780  78.428  1.00  0.00     0.028 A 
ATOM     12  C   UNL     1     112.682 113.207  79.781  1.00  0.00     0.064 A 
ATOM     13  C   UNL     1     109.996 110.720  72.795  1.00  0.00     0.005 A 
ATOM     14  C   UNL     1     111.069 111.069  73.516  1.00  0.00     0.031 A 
ATOM     15  C   UNL     1     115.040 113.478  79.706  1.00  0.00    -0.016 A 
ATOM     16  C   UNL     1     113.845 113.575  80.425  1.00  0.00     0.037 A 
ATOM     17  C   UNL     1     113.866 112.684  77.715  1.00  0.00     0.013 A 
ATOM     18  C   UNL     1     115.050 113.035  78.370  1.00  0.00     0.009 A 
ATOM     19  H   UNL     1     109.566 112.793  79.298  1.00  0.00     0.188 HD
ATOM     20  H   UNL     1     111.119 113.188  81.223  1.00  0.00     0.188 HD
ENDROOT
BRANCH   5  21
ATOM     21  N   UNL     1     107.062 111.094  75.115  1.00  0.00    -0.367 N 
ATOM     22  C   UNL     1     106.298 112.331  75.264  1.00  0.00     0.132 C 
ATOM     23  C   UNL     1     106.317 109.869  75.407  1.00  0.00     0.132 C 
ATOM     24  C   UNL     1     105.641 112.380  76.644  1.00  0.00     0.105 C 
ATOM     25  C   UNL     1     105.659 109.971  76.784  1.00  0.00     0.105 C 
ATOM     26  N   UNL     1     104.826 111.179  76.881  1.00  0.00    -0.303 NA
ATOM     27  C   UNL     1     104.174 111.250  78.188  1.00  0.00     0.105 C 
ENDBRANCH   5  21
BRANCH  15  28
ATOM     28  C   UNL     1     116.312 113.850  80.357  1.00  0.00    -0.018 C 
ATOM     29  C   UNL     1     117.403 113.098  80.095  1.00  0.00     0.015 C 
ATOM     30  C   UNL     1     116.399 114.943  81.323  1.00  0.00     0.007 C 
ATOM     31  C   UNL     1     118.683 113.372  80.728  1.00  0.00    -0.021 C 
ATOM     32  C   UNL     1     117.581 115.382  81.785  1.00  0.00     0.003 C 
ATOM     33  C   UNL     1     118.871 114.781  81.298  1.00  0.00     0.132 C 
ATOM     34  C   UNL     1     119.633 112.425  80.873  1.00  0.00     0.008 C 
ATOM     35  N   UNL     1     119.870 114.764  82.362  1.00  0.00    -0.381 N 
ATOM     36  C   UNL     1     120.814 112.688  81.672  1.00  0.00     0.018 C 
ATOM     37  C   UNL     1     120.858 113.809  82.406  1.00  0.00     0.078 C 
ATOM     38  H   UNL     1     120.017 115.601  82.917  1.00  0.00     0.160 HD
ENDBRANCH  15  28
TORSDOF 2
