REMARK VINA RESULT:     -11.2      0.000      0.000
REMARK SMILES Cc1ccc(-c2ccc(N3CCC(C(=O)NCc4cc(F)cc(F)c4)CC3)nn2)c(C)c1
REMARK SMILES IDX 10 1 13 2 12 3 26 4 11 5 27 6 14 7 16 8 15 9 17 11 18 12
REMARK SMILES IDX 20 13 19 14 22 15 23 16 25 17 21 18 24 19 9 20 28 21 8 22
REMARK SMILES IDX 29 23 7 24 6 25 5 26 30 27 4 28 32 29 3 30 2 31 31 32 1 33
REMARK H PARENT 16 10
ROOT
ATOM      1  N   UNL     1     111.072 114.178  78.035  1.00  0.00    -0.355 N 
ATOM      2  C   UNL     1     108.371 114.116  76.975  1.00  0.00     0.082 C 
ATOM      3  C   UNL     1     108.819 115.168  77.987  1.00  0.00     0.035 C 
ATOM      4  C   UNL     1     109.557 113.557  76.192  1.00  0.00     0.035 C 
ATOM      5  C   UNL     1     109.977 114.692  78.864  1.00  0.00     0.119 C 
ATOM      6  C   UNL     1     110.722 113.121  77.082  1.00  0.00     0.119 C 
ENDROOT
BRANCH   2   7
ATOM      7  C   UNL     1     107.599 113.024  77.656  1.00  0.00     0.223 C 
ATOM      8  N   UNL     1     106.681 112.424  76.811  1.00  0.00    -0.352 N 
ATOM      9  O   UNL     1     107.805 112.717  78.828  1.00  0.00    -0.275 OA
ATOM     10  H   UNL     1     106.550 112.786  75.871  1.00  0.00     0.163 HD
BRANCH   8  11
ATOM     11  C   UNL     1     105.829 111.330  77.217  1.00  0.00     0.151 C 
BRANCH  11  12
ATOM     12  C   UNL     1     104.670 111.799  78.049  1.00  0.00    -0.023 A 
ATOM     13  C   UNL     1     103.374 111.683  80.085  1.00  0.00     0.126 A 
ATOM     14  C   UNL     1     104.450 111.248  79.311  1.00  0.00     0.045 A 
ATOM     15  C   UNL     1     102.517 112.670  79.595  1.00  0.00     0.078 A 
ATOM     16  C   UNL     1     102.737 113.222  78.332  1.00  0.00     0.126 A 
ATOM     17  C   UNL     1     103.814 112.786  77.559  1.00  0.00     0.045 A 
ATOM     18  F   UNL     1     103.162 111.155  81.297  1.00  0.00    -0.207 F 
ATOM     19  F   UNL     1     101.916 114.169  77.863  1.00  0.00    -0.207 F 
ENDBRANCH  11  12
ENDBRANCH   8  11
ENDBRANCH   2   7
BRANCH   1  20
ATOM     20  C   UNL     1     112.364 114.221  78.573  1.00  0.00     0.151 A 
ATOM     21  N   UNL     1     112.815 113.168  79.286  1.00  0.00    -0.132 NA
ATOM     22  C   UNL     1     113.121 115.352  78.344  1.00  0.00     0.051 A 
ATOM     23  N   UNL     1     114.070 113.210  79.810  1.00  0.00    -0.148 NA
ATOM     24  C   UNL     1     114.398 115.395  78.876  1.00  0.00     0.035 A 
ATOM     25  C   UNL     1     114.833 114.304  79.602  1.00  0.00     0.093 A 
BRANCH  25  26
ATOM     26  C   UNL     1     116.148 114.263  80.191  1.00  0.00     0.005 A 
ATOM     27  C   UNL     1     117.151 113.455  79.655  1.00  0.00    -0.041 A 
ATOM     28  C   UNL     1     116.409 115.047  81.314  1.00  0.00     0.011 A 
ATOM     29  C   UNL     1     118.417 113.433  80.243  1.00  0.00     0.007 A 
ATOM     30  C   UNL     1     117.674 115.025  81.903  1.00  0.00     0.004 A 
ATOM     31  C   UNL     1     118.677 114.217  81.367  1.00  0.00    -0.051 A 
ATOM     32  C   UNL     1     116.908 112.601  78.452  1.00  0.00     0.045 C 
ATOM     33  C   UNL     1     120.030 114.193  81.996  1.00  0.00     0.044 C 
ENDBRANCH  25  26
ENDBRANCH   1  20
TORSDOF 5
