REMARK VINA RESULT:     -11.4      0.000      0.000
REMARK SMILES Cc1cccc2ncc(-c3ccc(OC4CCN(C(=O)[C@@H]5CCCO5)CC4)cc3)cc12
REMARK SMILES IDX 13 1 12 2 28 3 10 4 11 5 29 6 14 7 15 8 19 9 20 10 18 11
REMARK SMILES IDX 17 12 26 13 16 14 27 15 21 16 25 17 24 18 22 19 23 20 9 21
REMARK SMILES IDX 30 22 8 23 31 24 7 25 6 26 2 27 5 28 3 29 4 30 1 31
REMARK H PARENT
ROOT
ATOM      1  C   UNL     1     110.710 115.423  78.970  1.00  0.00     0.119 A 
ATOM      2  C   UNL     1     111.017 114.402  79.871  1.00  0.00     0.047 A 
ATOM      3  C   UNL     1     111.732 116.070  78.276  1.00  0.00     0.047 A 
ATOM      4  C   UNL     1     113.367 114.678  79.382  1.00  0.00    -0.017 A 
ATOM      5  C   UNL     1     112.345 114.031  80.077  1.00  0.00     0.012 A 
ATOM      6  C   UNL     1     113.061 115.698  78.481  1.00  0.00     0.012 A 
ENDROOT
BRANCH   1   7
ATOM      7  O   UNL     1     109.406 115.788  78.767  1.00  0.00    -0.490 OA
BRANCH   7   8
ATOM      8  C   UNL     1     108.817 115.397  77.532  1.00  0.00     0.176 C 
ATOM      9  C   UNL     1     109.602 113.057  74.119  1.00  0.00     0.251 C 
ATOM     10  O   UNL     1     110.325 113.484  73.215  1.00  0.00    -0.272 OA
ATOM     11  N   UNL     1     109.004 113.861  75.089  1.00  0.00    -0.340 N 
ATOM     12  C   UNL     1     109.180 115.315  75.040  1.00  0.00     0.123 C 
ATOM     13  C   UNL     1     108.139 113.382  76.175  1.00  0.00     0.123 C 
ATOM     14  C   UNL     1     109.706 115.845  76.370  1.00  0.00     0.067 C 
ATOM     15  C   UNL     1     108.644 113.878  77.526  1.00  0.00     0.067 C 
BRANCH   9  16
ATOM     16  C   UNL     1     109.335 111.587  74.209  1.00  0.00     0.207 C 
ATOM     17  O   UNL     1     108.248 111.319  73.318  1.00  0.00    -0.368 OA
ATOM     18  C   UNL     1     108.719 110.464  72.267  1.00  0.00     0.161 C 
ATOM     19  C   UNL     1     110.516 110.753  73.750  1.00  0.00     0.044 C 
ATOM     20  C   UNL     1     110.228 110.558  72.281  1.00  0.00     0.032 C 
ENDBRANCH   9  16
ENDBRANCH   7   8
ENDBRANCH   1   7
BRANCH   4  21
ATOM     21  C   UNL     1     114.745 114.291  79.595  1.00  0.00     0.001 A 
ATOM     22  C   UNL     1     115.500 114.845  80.618  1.00  0.00     0.021 A 
ATOM     23  C   UNL     1     115.356 113.355  78.785  1.00  0.00     0.120 A 
ATOM     24  C   UNL     1     116.833 114.455  80.801  1.00  0.00     0.004 A 
ATOM     25  N   UNL     1     116.639 112.951  78.928  1.00  0.00    -0.256 NA
ATOM     26  C   UNL     1     117.370 113.491  79.922  1.00  0.00     0.070 A 
ATOM     27  C   UNL     1     117.625 114.998  81.827  1.00  0.00    -0.042 A 
ATOM     28  C   UNL     1     118.694 113.104  80.105  1.00  0.00     0.029 A 
ATOM     29  C   UNL     1     118.947 114.592  81.987  1.00  0.00     0.004 A 
ATOM     30  C   UNL     1     119.481 113.644  81.124  1.00  0.00     0.003 A 
ATOM     31  C   UNL     1     117.096 116.022  82.784  1.00  0.00     0.045 C 
ENDBRANCH   4  21
TORSDOF 4
