REMARK VINA RESULT:     -12.3      0.000      0.000
REMARK SMILES C[C@]1(c2cccc(Cn3c(=O)n(-c4noc5ccc(Cl)cc45)c4ccccc43)c2)OC(=O)NC1=O
REMARK SMILES IDX 8 1 9 2 12 3 23 4 10 5 28 6 24 7 11 8 27 9 25 10 26 11 13 12
REMARK SMILES IDX 19 13 21 14 18 15 22 16 17 17 16 18 14 19 15 20 20 21 7 22
REMARK SMILES IDX 29 23 6 24 3 25 5 26 4 27 2 28 30 29 34 30 31 31 35 32 33 33
REMARK SMILES IDX 32 34 1 35
REMARK H PARENT 33 36
ROOT
ATOM      1  C   UNL     1     109.973 114.288  79.817  1.00  0.00     0.163 C 
ENDROOT
BRANCH   1   2
ATOM      2  N   UNL     1     111.304 113.733  79.767  1.00  0.00    -0.287 N 
ATOM      3  N   UNL     1     113.528 113.416  79.397  1.00  0.00    -0.241 N 
ATOM      4  C   UNL     1     113.018 112.267  80.049  1.00  0.00     0.076 A 
ATOM      5  C   UNL     1     112.458 114.363  79.228  1.00  0.00     0.335 A 
ATOM      6  C   UNL     1     111.650 112.468  80.260  1.00  0.00     0.070 A 
ATOM      7  C   UNL     1     113.631 111.124  80.531  1.00  0.00     0.029 A 
ATOM      8  O   UNL     1     112.494 115.467  78.700  1.00  0.00    -0.247 OA
ATOM      9  C   UNL     1     110.846 111.532  80.887  1.00  0.00     0.028 A 
ATOM     10  C   UNL     1     112.836 110.163  81.168  1.00  0.00     0.002 A 
ATOM     11  C   UNL     1     111.455 110.362  81.338  1.00  0.00     0.002 A 
BRANCH   3  12
ATOM     12  C   UNL     1     114.847 113.607  78.967  1.00  0.00     0.192 A 
ATOM     13  C   UNL     1     117.212 115.459  81.301  1.00  0.00     0.042 A 
ATOM     14  C   UNL     1     115.971 114.909  80.945  1.00  0.00     0.036 A 
ATOM     15  C   UNL     1     118.312 115.374  80.441  1.00  0.00     0.024 A 
ATOM     16  C   UNL     1     115.861 114.271  79.701  1.00  0.00     0.068 A 
ATOM     17  C   UNL     1     118.216 114.740  79.198  1.00  0.00     0.052 A 
ATOM     18  C   UNL     1     116.971 114.207  78.878  1.00  0.00     0.169 A 
ATOM     19  N   UNL     1     115.309 113.171  77.782  1.00  0.00    -0.060 NA
ATOM     20  O   UNL     1     116.644 113.552  77.731  1.00  0.00    -0.354 OA
ATOM     21  Cl  UNL     1     117.381 116.249  82.823  1.00  0.00    -0.084 Cl
ENDBRANCH   3  12
ENDBRANCH   1   2
BRANCH   1  22
ATOM     22  C   UNL     1     109.189 113.981  78.568  1.00  0.00    -0.028 A 
ATOM     23  C   UNL     1     108.198 113.009  78.606  1.00  0.00     0.014 A 
ATOM     24  C   UNL     1     109.469 114.673  77.399  1.00  0.00     0.005 A 
ATOM     25  C   UNL     1     107.472 112.726  77.450  1.00  0.00     0.005 A 
ATOM     26  C   UNL     1     108.743 114.389  76.242  1.00  0.00     0.001 A 
ATOM     27  C   UNL     1     107.743 113.416  76.268  1.00  0.00     0.008 A 
BRANCH  25  28
ATOM     28  C   UNL     1     106.384 111.665  77.477  1.00  0.00     0.214 C 
ATOM     29  O   UNL     1     106.041 111.283  78.833  1.00  0.00    -0.428 OA
ATOM     30  C   UNL     1     105.063 112.194  76.960  1.00  0.00     0.278 C 
ATOM     31  C   UNL     1     104.719 111.523  79.078  1.00  0.00     0.415 C 
ATOM     32  O   UNL     1     104.858 112.646  75.842  1.00  0.00    -0.269 OA
ATOM     33  N   UNL     1     104.155 112.061  77.969  1.00  0.00    -0.257 N 
ATOM     34  O   UNL     1     104.168 111.282  80.142  1.00  0.00    -0.224 OA
ATOM     35  C   UNL     1     106.765 110.377  76.744  1.00  0.00     0.073 C 
ATOM     36  H   UNL     1     103.181 112.333  77.897  1.00  0.00     0.176 HD
ENDBRANCH  25  28
ENDBRANCH   1  22
TORSDOF 4
